3lcd_ligand
  -I-interpret- 

 67 71  0  0  0  0  0  0  0  0999 V2000
  -19.9480    4.8310  -17.4700 N   0  0  0  0  0
  -20.1390    2.7060  -18.4450 N   0  0  0  0  0
  -20.9560    1.7200  -18.8190 C   0  0  0  0  0
  -22.3160    1.7730  -18.6510 C   0  0  0  0  0
  -22.1230    3.8530  -17.7240 C   0  0  0  0  0
  -24.6870    4.4610  -15.8140 C   0  0  0  0  0
  -26.3390    2.9640  -14.8590 C   0  0  0  0  0
  -24.7760    4.0420  -13.4470 C   0  0  0  0  0
  -25.1860   -0.5970  -18.7170 C   0  0  0  0  0
  -24.8410   -1.4230  -19.7630 C   0  0  0  0  0
  -23.6700   -1.1990  -20.4550 C   0  0  0  0  0
  -25.7730   -2.5160  -20.1080 C   0  0  0  0  0
  -24.0240   -5.6960  -20.0830 C   0  0  0  0  0
  -20.7490    3.7660  -17.8930 C   0  0  0  0  0
  -22.9140    2.8420  -18.1080 N   0  0  0  0  0
  -22.6480    5.0260  -17.1270 N   0  0  0  0  0
  -24.1070    5.1310  -17.0360 C   0  0  0  0  0
  -25.7620    3.5950  -15.9400 C   0  0  0  0  0
  -26.4560    3.2720  -17.4780 Cl  0  0  0  0  0
  -25.8400    3.1830  -13.5970 C   0  0  0  0  0
  -24.2100    4.6750  -14.5330 C   0  0  0  0  0
  -22.8930    5.7390  -14.2040 Cl  0  0  0  0  0
  -23.1750    0.6770  -19.0420 C   0  0  0  0  0
  -24.3560    0.4450  -18.3630 C   0  0  0  0  0
  -22.8420   -0.1570  -20.0910 C   0  0  0  0  0
  -26.9580   -2.2710  -19.9230 O   0  0  0  0  0
  -25.2870   -3.7300  -20.6080 N   0  0  0  0  0
  -23.9500   -4.2040  -20.3270 C   0  0  0  0  0
  -25.4690   -6.0870  -20.2300 C   0  0  0  0  0
  -26.2080   -4.8490  -20.6890 C   0  0  0  0  0
  -26.7740   -5.1040  -22.0770 C   0  0  0  0  0
  -27.2850   -3.8900  -22.7060 N   0  3  0  0  0
  -27.2390   -4.1170  -24.1510 C   0  0  0  0  0
  -28.5550   -3.6600  -24.7390 C   0  0  0  0  0
  -29.4850   -3.4220  -23.5760 C   0  0  0  0  0
  -28.6860   -3.7040  -22.3260 C   0  0  0  0  0
  -18.9356    4.7851  -17.5857 H   0  0  0  0  0
  -20.3760    5.6539  -17.0457 H   0  0  0  0  0
  -20.5229    0.8318  -19.2791 H   0  0  0  0  0
  -27.1869    2.2946  -15.0041 H   0  0  0  0  0
  -24.3730    4.2255  -12.4510 H   0  0  0  0  0
  -26.1134   -0.7666  -18.1700 H   0  0  0  0  0
  -23.3982   -1.8451  -21.2898 H   0  0  0  0  0
  -23.6533   -5.9458  -19.0889 H   0  0  0  0  0
  -23.4009   -6.2373  -20.7949 H   0  0  0  0  0
  -22.0378    5.7643  -16.7763 H   0  0  0  0  0
  -24.3549    6.1907  -16.9759 H   0  0  0  0  0
  -24.5253    4.6332  -17.9108 H   0  0  0  0  0
  -26.2788    2.6857  -12.7320 H   0  0  0  0  0
  -24.6355    1.0961  -17.5347 H   0  0  0  0  0
  -21.9140    0.0098  -20.6380 H   0  0  0  0  0
  -23.2908   -3.9924  -21.1689 H   0  0  0  0  0
  -23.5481   -3.6984  -19.4490 H   0  0  0  0  0
  -25.8713   -6.4523  -19.2851 H   0  0  0  0  0
  -25.5815   -6.8969  -20.9508 H   0  0  0  0  0
  -27.0628   -4.6042  -20.0585 H   0  0  0  0  0
  -27.6028   -5.8050  -21.9779 H   0  0  0  0  0
  -25.9694   -5.4924  -22.7014 H   0  0  0  0  0
  -26.7394   -3.0754  -22.4248 H   0  0  0  0  0
  -27.0803   -5.1748  -24.3608 H   0  0  0  0  0
  -26.4148   -3.5577  -24.5936 H   0  0  0  0  0
  -28.9615   -4.4114  -25.4159 H   0  0  0  0  0
  -28.4249   -2.7512  -25.3266 H   0  0  0  0  0
  -30.3594   -4.0701  -23.6356 H   0  0  0  0  0
  -29.8595   -2.3984  -23.5780 H   0  0  0  0  0
  -28.7762   -2.8704  -21.6295 H   0  0  0  0  0
  -29.0625   -4.6026  -21.8372 H   0  0  0  0  0
 14  1  1  0  0  0
  3  2  4  0  0  0
  2 14  4  0  0  0
  4  3  4  0  0  0
  4 15  4  0  0  0
 23  4  1  0  0  0
  5 14  4  0  0  0
 15  5  4  0  0  0
  5 16  1  0  0  0
 17  6  1  0  0  0
  6 18  4  0  0  0
  6 21  4  0  0  0
 18  7  4  0  0  0
  7 20  4  0  0  0
  8 20  4  0  0  0
 21  8  4  0  0  0
 10  9  4  0  0  0
  9 24  4  0  0  0
 10 11  4  0  0  0
 12 10  1  0  0  0
 11 25  4  0  0  0
 12 26  2  0  0  0
 27 12  1  0  0  0
 28 13  1  0  0  0
 13 29  1  0  0  0
 16 17  1  0  0  0
 18 19  1  0  0  0
 21 22  1  0  0  0
 24 23  4  0  0  0
 25 23  4  0  0  0
 27 28  1  0  0  0
 27 30  1  0  0  0
 29 30  1  0  0  0
 30 31  1  0  0  0
 31 32  1  0  0  0
 32 33  1  0  0  0
 32 36  1  0  0  0
 33 34  1  0  0  0
 34 35  1  0  0  0
 35 36  1  0  0  0
  1 37  1  0  0  0
  1 38  1  0  0  0
  3 39  1  0  0  0
  7 40  1  0  0  0
  8 41  1  0  0  0
  9 42  1  0  0  0
 11 43  1  0  0  0
 13 44  1  0  0  0
 13 45  1  0  0  0
 16 46  1  0  0  0
 17 47  1  0  0  0
 17 48  1  0  0  0
 20 49  1  0  0  0
 24 50  1  0  0  0
 25 51  1  0  0  0
 28 52  1  0  0  0
 28 53  1  0  0  0
 29 54  1  0  0  0
 29 55  1  0  0  0
 30 56  1  0  0  0
 31 57  1  0  0  0
 31 58  1  0  0  0
 32 59  1  0  0  0
 33 60  1  0  0  0
 33 61  1  0  0  0
 34 62  1  0  0  0
 34 63  1  0  0  0
 35 64  1  0  0  0
 35 65  1  0  0  0
 36 66  1  0  0  0
 36 67  1  0  0  0
M  END
$$$$
