3n87_ligand
  -I-interpret- 

 44 46  0  0  0  0  0  0  0  0999 V2000
   45.1690    5.6260   29.5030 O   0  0  0  0  0
   44.9940    6.8280   29.1980 C   0  0  0  0  0
   45.7490    7.7450   29.6270 O   0  0  0  0  0
   43.8210    7.1210   28.2740 C   0  0  0  0  0
   42.7180    6.3250   28.7050 O   0  0  0  0  0
   44.1210    6.6030   26.8890 C   0  0  0  0  0
   44.0040    7.3090   25.7500 C   0  0  0  0  0
   43.1870    8.5700   25.7160 C   0  0  0  0  0
   42.2280    8.4040   24.6830 O   0  0  0  0  0
   42.4860    8.8290   27.0530 C   0  0  0  0  0
   41.9970   10.1710   27.0990 O   0  0  0  0  0
   43.4370    8.6040   28.2270 C   0  0  0  0  0
   44.7660    6.8180   24.5490 C   0  0  0  0  0
   45.4370    7.7420   23.7620 C   0  0  0  0  0
   46.1840    7.3490   22.6520 C   0  0  0  0  0
   46.8370    8.4490   21.8440 C   0  0  0  0  0
   48.1970    8.4240   21.2040 C   0  0  0  0  0
   48.9760    7.2550   21.1290 C   0  0  0  0  0
   50.2220    7.3150   20.5010 C   0  0  0  0  0
   50.6730    8.5260   19.9490 C   0  0  0  0  0
   49.8930    9.6860   20.0080 C   0  0  0  0  0
   48.6550    9.6280   20.6420 C   0  0  0  0  0
   46.2650    5.9820   22.3290 C   0  0  0  0  0
   45.6120    5.0310   23.1300 C   0  0  0  0  0
   44.8610    5.4500   24.2380 C   0  0  0  0  0
   46.2090    9.4700   21.6660 O   0  0  0  0  0
   45.4515    8.5903   29.2826 H   0  0  0  0  0
   42.9803    5.4018   28.7270 H   0  0  0  0  0
   44.4608    5.5708   26.8044 H   0  0  0  0  0
   43.8314    9.4298   25.5328 H   0  0  0  0  0
   41.6813    9.1910   24.6260 H   0  0  0  0  0
   41.6552    8.1281   27.1342 H   0  0  0  0  0
   41.5599   10.3225   27.9402 H   0  0  0  0  0
   44.3317    9.2135   28.0998 H   0  0  0  0  0
   42.9478    8.8887   29.1585 H   0  0  0  0  0
   45.3791    8.8002   24.0171 H   0  0  0  0  0
   48.6135    6.3188   21.5536 H   0  0  0  0  0
   50.8446    6.4225   20.4390 H   0  0  0  0  0
   51.6493    8.5623   19.4656 H   0  0  0  0  0
   50.2478   10.6171   19.5661 H   0  0  0  0  0
   48.0361   10.5232   20.7030 H   0  0  0  0  0
   46.8347    5.6610   21.4569 H   0  0  0  0  0
   45.6886    3.9702   22.8913 H   0  0  0  0  0
   44.3502    4.7140   24.8589 H   0  0  0  0  0
  1  2  2  0  0  0
  2  3  1  0  0  0
  2  4  1  0  0  0
  4  5  1  0  0  0
  4  6  1  0  0  0
  4 12  1  0  0  0
  6  7  2  0  0  0
  7  8  1  0  0  0
  7 13  1  0  0  0
  8  9  1  0  0  0
  8 10  1  0  0  0
 10 11  1  0  0  0
 10 12  1  0  0  0
 13 14  4  0  0  0
 13 25  4  0  0  0
 14 15  4  0  0  0
 15 16  1  0  0  0
 15 23  4  0  0  0
 16 17  1  0  0  0
 16 26  2  0  0  0
 17 18  4  0  0  0
 17 22  4  0  0  0
 18 19  4  0  0  0
 19 20  4  0  0  0
 20 21  4  0  0  0
 21 22  4  0  0  0
 23 24  4  0  0  0
 24 25  4  0  0  0
  3 27  1  0  0  0
  5 28  1  0  0  0
  6 29  1  0  0  0
  8 30  1  0  0  0
  9 31  1  0  0  0
 10 32  1  0  0  0
 11 33  1  0  0  0
 12 34  1  0  0  0
 12 35  1  0  0  0
 14 36  1  0  0  0
 18 37  1  0  0  0
 19 38  1  0  0  0
 20 39  1  0  0  0
 21 40  1  0  0  0
 22 41  1  0  0  0
 23 42  1  0  0  0
 24 43  1  0  0  0
 25 44  1  0  0  0
M  END
$$$$
