1iyl_ligand
  -I-interpret- 

 55 58  0  0  0  0  0  0  0  0999 V2000
   11.9680   49.1550   -4.2410 O   0  0  0  0  0
   11.9360   49.3810   -2.8880 C   0  0  0  0  0
   13.1030   48.9670   -2.3160 C   0  0  0  0  0
   13.9030   48.4310   -3.3340 C   0  0  0  0  0
   15.1690   47.7800   -3.3100 C   0  0  0  0  0
   15.7330   47.4580   -4.5190 C   0  0  0  0  0
   15.0450   47.7350   -5.7300 C   0  0  0  0  0
   13.8020   48.3290   -5.7300 C   0  0  0  0  0
   13.2180   48.6330   -4.5000 C   0  0  0  0  0
   10.7570   49.9550   -2.3000 C   0  0  0  0  0
   10.7820   50.5510   -1.2290 O   0  0  0  0  0
    9.5260   49.7970   -2.9980 C   0  0  0  0  0
    8.4180   50.5750   -2.6990 N   0  0  0  0  0
    8.2650   51.6990   -1.7450 C   0  0  0  0  0
    7.4150   50.1000   -3.5310 C   0  0  0  0  0
    7.9600   49.0950   -4.2670 C   0  0  0  0  0
    9.2410   48.9210   -3.9370 N   0  0  0  0  0
   13.5570   48.9990   -0.8870 C   0  0  0  0  0
   15.8050   47.4870   -2.1090 O   0  0  0  0  0
   16.9160   46.5880   -2.0200 C   0  0  0  0  0
   17.3790   46.4990   -0.5920 C   0  0  0  0  0
   16.2830   45.8600    0.1620 C   0  0  0  0  0
   16.4880   45.8840    1.6280 N   0  3  0  0  0
   15.3370   45.1580    2.1910 C   0  0  0  0  0
   15.5510   44.9730    3.6040 C   0  0  0  0  0
   15.8740   43.7550    4.1340 C   0  0  0  0  0
   16.0650   43.6680    5.5000 C   0  0  0  0  0
   15.9170   44.8100    6.2750 C   0  0  0  0  0
   15.6040   45.9740    5.7320 N   0  0  0  0  0
   15.4220   46.0570    4.4150 C   0  0  0  0  0
   16.7153   46.9866   -4.5499 H   0  0  0  0  0
   15.5104   47.4720   -6.6799 H   0  0  0  0  0
   13.2891   48.5551   -6.6648 H   0  0  0  0  0
    8.4906   51.3514   -0.7368 H   0  0  0  0  0
    8.9520   52.5005   -2.0166 H   0  0  0  0  0
    7.2403   52.0688   -1.7825 H   0  0  0  0  0
    6.3884   50.4623   -3.5845 H   0  0  0  0  0
    7.4264   48.5142   -5.0194 H   0  0  0  0  0
   13.5705   50.0303   -0.5344 H   0  0  0  0  0
   12.8702   48.4136   -0.2757 H   0  0  0  0  0
   14.5592   48.5762   -0.8159 H   0  0  0  0  0
   17.7311   46.9564   -2.6429 H   0  0  0  0  0
   16.6110   45.5998   -2.3643 H   0  0  0  0  0
   17.6050   47.4873   -0.1917 H   0  0  0  0  0
   18.2980   45.9181   -0.5142 H   0  0  0  0  0
   16.2362   44.8157   -0.1468 H   0  0  0  0  0
   15.3694   46.4147   -0.0517 H   0  0  0  0  0
   16.5421   46.8381    1.9847 H   0  0  0  0  0
   17.3724   45.4493    1.8914 H   0  0  0  0  0
   15.2367   44.1888    1.7025 H   0  0  0  0  0
   14.4236   45.7298    2.0274 H   0  0  0  0  0
   15.9780   42.8767    3.4969 H   0  0  0  0  0
   16.3280   42.7165    5.9620 H   0  0  0  0  0
   16.0618   44.7457    7.3534 H   0  0  0  0  0
   15.1626   47.0201    3.9754 H   0  0  0  0  0
  1  2  4  0  0  0
  1  9  4  0  0  0
  2  3  4  0  0  0
  2 10  1  0  0  0
  3  4  4  0  0  0
  3 18  1  0  0  0
  4  5  4  0  0  0
  4  9  4  0  0  0
  5  6  4  0  0  0
  5 19  1  0  0  0
  6  7  4  0  0  0
  7  8  4  0  0  0
  8  9  4  0  0  0
 10 11  2  0  0  0
 10 12  1  0  0  0
 12 13  4  0  0  0
 12 17  4  0  0  0
 13 14  1  0  0  0
 13 15  4  0  0  0
 15 16  4  0  0  0
 16 17  4  0  0  0
 19 20  1  0  0  0
 20 21  1  0  0  0
 21 22  1  0  0  0
 22 23  1  0  0  0
 23 24  1  0  0  0
 24 25  1  0  0  0
 25 26  4  0  0  0
 25 30  4  0  0  0
 26 27  4  0  0  0
 27 28  4  0  0  0
 28 29  4  0  0  0
 29 30  4  0  0  0
  6 31  1  0  0  0
  7 32  1  0  0  0
  8 33  1  0  0  0
 14 34  1  0  0  0
 14 35  1  0  0  0
 14 36  1  0  0  0
 15 37  1  0  0  0
 16 38  1  0  0  0
 18 39  1  0  0  0
 18 40  1  0  0  0
 18 41  1  0  0  0
 20 42  1  0  0  0
 20 43  1  0  0  0
 21 44  1  0  0  0
 21 45  1  0  0  0
 22 46  1  0  0  0
 22 47  1  0  0  0
 23 48  1  0  0  0
 23 49  1  0  0  0
 24 50  1  0  0  0
 24 51  1  0  0  0
 26 52  1  0  0  0
 27 53  1  0  0  0
 28 54  1  0  0  0
 30 55  1  0  0  0
M  END
$$$$
