4ool_ligand
  -I-interpret- 

 57 58  0  0  0  0  0  0  0  0999 V2000
   24.3500    4.2140   15.4100 C   0  0  0  0  0
   24.8960    3.1820   14.7260 C   0  0  0  0  0
   23.5120    3.8710   13.0940 C   0  0  0  0  0
   23.5940   -0.2790   15.9970 C   0  0  0  0  0
   23.6090   -1.0880   18.6310 C   0  0  0  0  0
   22.5100   -0.4090   18.1930 C   0  0  0  0  0
   24.6920   -0.9390   16.4970 C   0  0  0  0  0
   22.4690    0.0090   16.8240 C   0  0  0  0  0
   28.7480    5.4570   17.4350 C   0  0  0  0  0
   25.8320    2.2220   15.3770 C   0  0  0  0  0
   32.3360    3.5670   16.9580 C   0  0  0  0  0
   26.4890    2.6010   16.6620 C   0  0  0  0  0
   33.1540    4.7390   16.6390 C   0  0  0  0  0
   34.1080    1.4980   18.9770 C   0  0  0  0  0
   25.9070   -1.1900   15.5960 C   0  0  0  0  0
   32.9000    2.1630   16.8670 C   0  0  0  0  0
   34.2550    2.0650   17.5850 C   0  0  0  0  0
   29.1280    3.2030   18.5310 C   0  0  0  0  0
   28.1470    4.1160   17.7890 C   0  0  0  0  0
   24.3810    2.9990   13.5050 N   0  0  0  0  0
   25.9910    1.0530   14.8150 N   0  0  0  0  0
   31.1250    3.8170   17.3220 N   0  0  0  0  0
   24.6660   -1.3830   17.8020 N   0  0  0  0  0
   22.8960    3.8870   11.8550 N   0  0  0  0  0
   27.4530    3.5480   16.6180 N   0  0  0  0  0
   33.7550    4.8060   15.5720 O   0  0  0  0  0
   34.4640    0.3520   19.2140 O   0  0  0  0  0
   21.5110    0.6200   16.3630 O   0  0  0  0  0
   28.8400    5.8010   16.2810 O   0  0  0  0  0
   26.1450    2.0850   17.7120 O   0  0  0  0  0
   33.2030    5.6430   17.4580 O   0  0  0  0  0
   33.6310    2.1860   19.8690 O   0  0  0  0  0
   21.4840   -0.1530   19.0610 O   0  0  0  0  0
   25.7210   -2.1860   18.3280 O   0  0  0  0  0
   26.7310   -0.0170   15.3720 O   0  0  0  0  0
   30.1810    2.8180   17.6540 O   0  0  0  0  0
   23.2030    5.0400   14.3660 S   0  0  0  0  0
   24.5832    4.4878   16.4390 H   0  0  0  0  0
   23.5837    0.0289   14.9514 H   0  0  0  0  0
   23.6509   -1.4073   19.6723 H   0  0  0  0  0
   29.1008    6.1180   18.2266 H   0  0  0  0  0
   25.5280   -1.5080   14.6248 H   0  0  0  0  0
   26.5307   -1.9317   16.0950 H   0  0  0  0  0
   33.0426    1.9113   15.8161 H   0  0  0  0  0
   32.2018    1.4746   17.3432 H   0  0  0  0  0
   34.9018    1.4022   17.0101 H   0  0  0  0  0
   34.6755    3.0675   17.6645 H   0  0  0  0  0
   28.6024    2.3132   18.8775 H   0  0  0  0  0
   29.5453    3.7380   19.3841 H   0  0  0  0  0
   27.3655    4.2454   18.5378 H   0  0  0  0  0
   23.1142    3.1657   11.1676 H   0  0  0  0  0
   22.2237    4.6201   11.6291 H   0  0  0  0  0
   27.7226    3.8987   15.6989 H   0  0  0  0  0
   33.5960    4.0060   15.0657 H   0  0  0  0  0
   33.4059    3.0510   19.5188 H   0  0  0  0  0
   20.7915    0.3288   18.6029 H   0  0  0  0  0
   25.5330   -2.3986   19.2451 H   0  0  0  0  0
  2  1  4  0  0  0
  1 37  4  0  0  0
 10  2  1  0  0  0
  2 20  4  0  0  0
 20  3  4  0  0  0
  3 24  1  0  0  0
  3 37  4  0  0  0
  7  4  2  0  0  0
  4  8  1  0  0  0
  5  6  2  0  0  0
 23  5  1  0  0  0
  8  6  1  0  0  0
  6 33  1  0  0  0
 15  7  1  0  0  0
  7 23  1  0  0  0
  8 28  2  0  0  0
 19  9  1  0  0  0
  9 29  2  0  0  0
 12 10  1  0  0  0
 10 21  2  0  0  0
 11 13  1  0  0  0
 11 16  1  0  0  0
 22 11  2  0  0  0
 25 12  1  0  0  0
 12 30  2  0  0  0
 13 26  1  0  0  0
 13 31  2  0  0  0
 17 14  1  0  0  0
 14 27  2  0  0  0
 14 32  1  0  0  0
 35 15  1  0  0  0
 16 17  1  0  0  0
 18 19  1  0  0  0
 36 18  1  0  0  0
 19 25  1  0  0  0
 21 35  1  0  0  0
 22 36  1  0  0  0
 23 34  1  0  0  0
  1 38  1  0  0  0
  4 39  1  0  0  0
  5 40  1  0  0  0
  9 41  1  0  0  0
 15 42  1  0  0  0
 15 43  1  0  0  0
 16 44  1  0  0  0
 16 45  1  0  0  0
 17 46  1  0  0  0
 17 47  1  0  0  0
 18 48  1  0  0  0
 18 49  1  0  0  0
 19 50  1  0  0  0
 24 51  1  0  0  0
 24 52  1  0  0  0
 25 53  1  0  0  0
 26 54  1  0  0  0
 32 55  1  0  0  0
 33 56  1  0  0  0
 34 57  1  0  0  0
M  END
$$$$
