3ldw_ligand
  -I-interpret- 

 26 26  0  0  0  0  0  0  0  0999 V2000
  -11.4750   16.1690  -33.5400 O   0  0  0  0  0
  -10.6940   15.0000  -33.9810 P   0  0  0  0  0
  -11.5900   13.6490  -33.9600 O   0  0  0  0  0
   -9.4220   14.7030  -33.1100 O   0  0  0  0  0
   -9.9630   15.0900  -35.6920 C   0  0  0  0  0
  -11.3500   15.2600  -36.8790 P   0  0  0  0  0
  -10.8570   15.2280  -38.2620 O   0  0  0  0  0
  -12.3160   14.0040  -36.4970 O   0  0  0  0  0
  -12.1610   16.5980  -36.5280 O   0  0  0  0  0
   -9.3060   13.8520  -35.9840 O   0  0  0  0  0
   -8.9720   16.2460  -35.7870 C   0  0  0  0  0
   -8.3860   16.4290  -37.1260 N   0  0  0  0  0
   -7.7890   15.4950  -37.8500 C   0  0  0  0  0
   -7.3310   16.0830  -38.9490 N   0  0  0  0  0
   -7.6790   17.3700  -38.8980 C   0  0  0  0  0
   -8.3070   17.5940  -37.7530 C   0  0  0  0  0
  -11.0551   12.9070  -34.2515 H   0  0  0  0  0
   -8.9697   13.9315  -33.4589 H   0  0  0  0  0
  -12.6009   14.0870  -35.5840 H   0  0  0  0  0
  -12.4566   16.5615  -35.6154 H   0  0  0  0  0
   -9.9387   13.1327  -35.9212 H   0  0  0  0  0
   -8.1519   16.0240  -35.1042 H   0  0  0  0  0
   -9.5177   17.1585  -35.5469 H   0  0  0  0  0
   -7.6916   14.4404  -37.5921 H   0  0  0  0  0
   -7.4798   18.1134  -39.6698 H   0  0  0  0  0
   -8.6856   18.5516  -37.3957 H   0  0  0  0  0
  1  2  2  0  0  0
  2  3  1  0  0  0
  2  4  1  0  0  0
  2  5  1  0  0  0
  5  6  1  0  0  0
  5 10  1  0  0  0
  5 11  1  0  0  0
  6  7  2  0  0  0
  6  8  1  0  0  0
  6  9  1  0  0  0
 11 12  1  0  0  0
 12 13  4  0  0  0
 12 16  4  0  0  0
 13 14  4  0  0  0
 14 15  4  0  0  0
 15 16  4  0  0  0
  3 17  1  0  0  0
  4 18  1  0  0  0
  8 19  1  0  0  0
  9 20  1  0  0  0
 10 21  1  0  0  0
 11 22  1  0  0  0
 11 23  1  0  0  0
 13 24  1  0  0  0
 15 25  1  0  0  0
 16 26  1  0  0  0
M  END
$$$$
