### 
### Created by X-TOOL on Mon Sep 10 21:13:04 2018
### 

@<TRIPOS>MOLECULE
3ldw_ligand
   22    22     1     0     0
SMALL
GAST_HUCK


@<TRIPOS>ATOM
      1 O17       -11.4750   16.1690  -33.5400 O.co2     1 ZOL        -0.5593
      2 P14       -10.6940   15.0000  -33.9810 P.3       1 ZOL         0.1130
      3 O16       -11.5900   13.6490  -33.9600 O.co2     1 ZOL        -0.5593
      4 O15        -9.4220   14.7030  -33.1100 O.co2     1 ZOL        -0.5593
      5 C8         -9.9630   15.0900  -35.6920 C.3       1 ZOL         0.2328
      6 P9        -11.3500   15.2600  -36.8790 P.3       1 ZOL         0.1130
      7 O10       -10.8570   15.2280  -38.2620 O.co2     1 ZOL        -0.5593
      8 O11       -12.3160   14.0040  -36.4970 O.co2     1 ZOL        -0.5593
      9 O12       -12.1610   16.5980  -36.5280 O.co2     1 ZOL        -0.5593
     10 O13        -9.3060   13.8520  -35.9840 O.3       1 ZOL        -0.3574
     11 C7         -8.9720   16.2460  -35.7870 C.3       1 ZOL         0.1185
     12 N15        -8.3860   16.4290  -37.1260 N.pl3     1 ZOL        -0.2464
     13 C16        -7.7890   15.4950  -37.8500 C.2       1 ZOL         0.0976
     14 N17        -7.3310   16.0830  -38.9490 N.2       1 ZOL        -0.3302
     15 C18        -7.6790   17.3700  -38.8980 C.2       1 ZOL        -0.0236
     16 C19        -8.3070   17.5940  -37.7530 C.2       1 ZOL         0.0365
     17 H          -9.9430   13.1350  -35.9409 H         1 ZOL         0.2134
     18 H          -8.1519   16.0240  -35.1042 H         1 ZOL         0.0685
     19 H          -9.5177   17.1585  -35.5469 H         1 ZOL         0.0685
     20 H          -7.6916   14.4404  -37.5921 H         1 ZOL         0.1215
     21 H          -7.4798   18.1134  -39.6698 H         1 ZOL         0.0444
     22 H          -8.6856   18.5516  -37.3957 H         1 ZOL         0.0860
@<TRIPOS>BOND
     1    1    2 ar 
     2    2    3 ar 
     3    2    4 ar 
     4    2    5 1  
     5    5    6 1  
     6    5   10 1  
     7    5   11 1  
     8    6    7 ar 
     9    6    8 ar 
    10    6    9 ar 
    11   11   12 1  
    12   12   13 1  
    13   12   16 1  
    14   13   14 2  
    15   14   15 1  
    16   15   16 2  
    17   10   17 1  
    18   11   18 1  
    19   11   19 1  
    20   13   20 1  
    21   15   21 1  
    22   16   22 1  
@<TRIPOS>SUBSTRUCTURE
     1 ZOL         1

