4k2g_ligand
  -I-interpret- 

 28 29  0  0  0  0  0  0  0  0999 V2000
   34.6880   53.8740   55.4660 F   0  0  0  0  0
   34.8890   52.7930   56.1660 C   0  0  0  0  0
   36.0870   52.8720   56.6950 F   0  0  0  0  0
   34.0190   52.7190   57.1310 F   0  0  0  0  0
   34.8560   51.5690   55.3220 C   0  0  0  0  0
   35.7760   50.6110   55.6130 N   0  0  0  0  0
   33.9390   51.4540   54.2920 C   0  0  0  0  0
   34.0110   50.2470   53.5700 C   0  0  0  0  0
   34.9750   49.2860   53.8720 C   0  0  0  0  0
   35.8660   49.4770   54.9310 C   0  0  0  0  0
   36.9280   48.4750   55.2700 C   0  0  0  0  0
   38.1800   49.1550   55.6310 C   0  0  0  0  0
   39.1570   49.7070   55.8780 N   0  0  0  0  0
   36.5460   47.4830   56.3170 C   0  0  0  0  0
   35.6990   47.8240   57.3720 C   0  0  0  0  0
   35.3540   46.8440   58.3100 C   0  0  0  0  0
   37.1040   46.1970   56.2200 C   0  0  0  0  0
   36.7750   45.2230   57.1470 C   0  0  0  0  0
   35.8770   45.5500   58.1910 C   0  0  0  0  0
   35.5700   44.6020   59.1040 F   0  0  0  0  0
   33.2173   52.2366   54.0578 H   0  0  0  0  0
   33.3024   50.0613   52.7629 H   0  0  0  0  0
   35.0341   48.3757   53.2753 H   0  0  0  0  0
   37.0698   47.8882   54.3624 H   0  0  0  0  0
   35.3116   48.8387   57.4644 H   0  0  0  0  0
   34.6798   47.0873   59.1312 H   0  0  0  0  0
   37.7982   45.9656   55.4121 H   0  0  0  0  0
   37.2000   44.2219   57.0742 H   0  0  0  0  0
  1  2  1  0  0  0
  2  3  1  0  0  0
  2  4  1  0  0  0
  2  5  1  0  0  0
  5  6  4  0  0  0
  5  7  4  0  0  0
  6 10  4  0  0  0
  7  8  4  0  0  0
  8  9  4  0  0  0
  9 10  4  0  0  0
 10 11  1  0  0  0
 11 12  1  0  0  0
 11 14  1  0  0  0
 12 13  3  0  0  0
 14 15  4  0  0  0
 14 17  4  0  0  0
 15 16  4  0  0  0
 16 19  4  0  0  0
 17 18  4  0  0  0
 18 19  4  0  0  0
 19 20  1  0  0  0
  7 21  1  0  0  0
  8 22  1  0  0  0
  9 23  1  0  0  0
 11 24  1  0  0  0
 15 25  1  0  0  0
 16 26  1  0  0  0
 17 27  1  0  0  0
 18 28  1  0  0  0
M  END
$$$$
