5gwz_ligand
  -I-interpret- 

 95 97  0  0  0  0  0  0  0  0999 V2000
   -0.7590   32.7350    3.5030 C   0  0  0  0  0
   -1.8110   32.3550    4.2490 C   0  0  0  0  0
   -2.7110   33.2550    5.0580 C   0  0  0  0  0
   -1.8970   31.0450    4.1410 O   0  0  0  0  0
   -0.8920   30.5650    3.3170 N   0  0  0  0  0
   -0.2300   31.6210    2.9170 C   0  0  0  0  0
    0.9990   31.7080    2.0420 C   0  0  0  0  0
    1.8260   30.8270    1.9360 O   0  0  0  0  0
    1.2230   32.9830    1.3820 N   0  0  0  0  0
    2.4390   33.1560    0.6330 C   0  0  0  0  0
    3.5620   33.4370    1.6320 C   0  0  0  0  0
    3.3330   34.1010    2.6520 O   0  0  0  0  0
    2.3170   34.3190   -0.3110 C   0  0  0  0  0
    4.9040   32.9250    1.3940 N   0  0  0  0  0
    5.9460   33.2170    2.3700 C   0  0  0  0  0
    7.0100   34.0750    1.7260 C   0  0  0  0  0
    7.6350   33.6490    0.7470 O   0  0  0  0  0
    6.5520   31.9210    2.8560 C   0  0  0  0  0
    7.6190   32.2210    3.8850 C   0  0  0  0  0
    5.4690   31.0660    3.4940 C   0  0  0  0  0
    7.3020   35.4290    2.2570 N   0  0  0  0  0
    8.3240   36.2320    1.6460 C   0  0  0  0  0
    9.6480   35.4920    1.8990 C   0  0  0  0  0
    9.9420   35.1490    3.0410 O   0  0  0  0  0
    8.3730   37.5710    2.3140 C   0  0  0  0  0
    7.6970   38.6960    1.4780 C   0  0  0  0  0
    6.8870   38.1380    0.2940 C   0  0  0  0  0
    6.7320   39.5390    2.4350 C   0  0  0  0  0
   11.7690   34.4360    1.1630 C   0  0  0  0  0
   12.9350   35.3680    1.2260 C   0  0  0  0  0
   13.1670   35.7920    2.5330 C   0  0  0  0  0
   14.3650   36.6610    2.8280 C   0  0  0  0  0
   11.9650   33.2290    0.2480 C   0  0  0  0  0
   11.0160   32.2610    0.6540 C   0  0  0  0  0
   11.3750   31.7910    2.0730 C   0  0  0  0  0
   11.0380   30.4440    2.0850 C   0  0  0  0  0
   11.1660   29.9540    0.6340 N   0  0  0  0  0
   11.1530   30.9790   -0.1900 C   0  0  0  0  0
   11.2320   30.9190   -1.4190 O   0  0  0  0  0
   10.5530   35.1600    0.8040 N   0  0  0  0  0
   15.3560   36.4870    2.2290 O   0  0  0  0  0
   15.5540   37.6940    4.6420 C   0  0  0  0  0
   14.3380   37.6330    3.8480 O   0  0  0  0  0
   14.4190   36.2890    6.5510 C   0  0  0  0  0
   14.4840   35.2980    7.5360 C   0  0  0  0  0
   15.6770   34.6160    7.7520 C   0  0  0  0  0
   16.8100   34.9080    6.9950 C   0  0  0  0  0
   16.7410   35.8900    6.0250 C   0  0  0  0  0
   15.5520   36.5800    5.7830 C   0  0  0  0  0
   -0.3923   33.7548    3.3863 H   0  0  0  0  0
   -2.1186   33.7814    5.8064 H   0  0  0  0  0
   -3.1891   33.9779    4.3969 H   0  0  0  0  0
   -3.4735   32.6539    5.5533 H   0  0  0  0  0
    0.5368   33.7348    1.4480 H   0  0  0  0  0
    2.6446   32.2593    0.0485 H   0  0  0  0  0
    1.4965   34.1373   -1.0051 H   0  0  0  0  0
    2.1192   35.2276    0.2576 H   0  0  0  0  0
    3.2472   34.4325   -0.8677 H   0  0  0  0  0
    5.1106   32.3733    0.5613 H   0  0  0  0  0
    5.5190   33.7535    3.2173 H   0  0  0  0  0
    6.9932   31.3872    2.0143 H   0  0  0  0  0
    8.3944   32.8394    3.4328 H   0  0  0  0  0
    7.1724   32.7527    4.7252 H   0  0  0  0  0
    8.0565   31.2864    4.2359 H   0  0  0  0  0
    5.0328   31.6032    4.3361 H   0  0  0  0  0
    4.6948   30.8530    2.7569 H   0  0  0  0  0
    5.9057   30.1309    3.8448 H   0  0  0  0  0
    6.7779   35.7890    3.0546 H   0  0  0  0  0
    8.1371   36.3818    0.5827 H   0  0  0  0  0
    9.4218   37.8387    2.4423 H   0  0  0  0  0
    7.8334   37.4901    3.2576 H   0  0  0  0  0
    8.4831   39.3273    1.0637 H   0  0  0  0  0
    7.5495   37.5780   -0.3660 H   0  0  0  0  0
    6.1041   37.4790    0.6695 H   0  0  0  0  0
    6.4358   38.9632   -0.2569 H   0  0  0  0  0
    5.9709   38.8801    2.8530 H   0  0  0  0  0
    7.3171   39.9787    3.2427 H   0  0  0  0  0
    6.2526   40.3307    1.8593 H   0  0  0  0  0
   11.6740   34.0238    2.1676 H   0  0  0  0  0
   13.5262   35.6757    0.3635 H   0  0  0  0  0
   12.4894   35.4987    3.3349 H   0  0  0  0  0
   12.9797   32.8390    0.3273 H   0  0  0  0  0
   11.8211   33.5032   -0.7971 H   0  0  0  0  0
   10.0278   32.7124    0.5660 H   0  0  0  0  0
   11.7982   32.3814    2.8856 H   0  0  0  0  0
   10.7417   29.8521    2.9510 H   0  0  0  0  0
   11.2489   28.9774    0.3515 H   0  0  0  0  0
   10.3473   35.4197   -0.1607 H   0  0  0  0  0
   15.6139   38.6752    5.1130 H   0  0  0  0  0
   16.4073   37.5200    3.9865 H   0  0  0  0  0
   13.4894   36.8325    6.3823 H   0  0  0  0  0
   13.6029   35.0610    8.1323 H   0  0  0  0  0
   15.7261   33.8453    8.5212 H   0  0  0  0  0
   17.7410   34.3675    7.1662 H   0  0  0  0  0
   17.6289   36.1294    5.4398 H   0  0  0  0  0
  1  2  4  0  0  0
  6  1  4  0  0  0
  2  3  1  0  0  0
  4  2  4  0  0  0
  5  4  4  0  0  0
  6  5  4  0  0  0
  7  6  1  0  0  0
  7  8  2  0  0  0
  9  7  1  0  0  0
 10  9  1  0  0  0
 11 10  1  0  0  0
 10 13  1  0  0  0
 11 12  2  0  0  0
 14 11  1  0  0  0
 15 14  1  0  0  0
 16 15  1  0  0  0
 15 18  1  0  0  0
 16 17  2  0  0  0
 21 16  1  0  0  0
 18 19  1  0  0  0
 18 20  1  0  0  0
 22 21  1  0  0  0
 23 22  1  0  0  0
 22 25  1  0  0  0
 23 24  2  0  0  0
 40 23  1  0  0  0
 25 26  1  0  0  0
 26 27  1  0  0  0
 26 28  1  0  0  0
 30 29  1  0  0  0
 29 33  1  0  0  0
 29 40  1  0  0  0
 31 30  2  0  0  0
 32 31  1  0  0  0
 32 41  2  0  0  0
 43 32  1  0  0  0
 33 34  1  0  0  0
 34 35  1  0  0  0
 34 38  1  0  0  0
 35 36  2  0  0  0
 37 36  1  0  0  0
 38 37  1  0  0  0
 38 39  2  0  0  0
 42 43  1  0  0  0
 49 42  1  0  0  0
 44 45  4  0  0  0
 44 49  4  0  0  0
 45 46  4  0  0  0
 46 47  4  0  0  0
 47 48  4  0  0  0
 48 49  4  0  0  0
  1 50  1  0  0  0
  3 51  1  0  0  0
  3 52  1  0  0  0
  3 53  1  0  0  0
  9 54  1  0  0  0
 10 55  1  0  0  0
 13 56  1  0  0  0
 13 57  1  0  0  0
 13 58  1  0  0  0
 14 59  1  0  0  0
 15 60  1  0  0  0
 18 61  1  0  0  0
 19 62  1  0  0  0
 19 63  1  0  0  0
 19 64  1  0  0  0
 20 65  1  0  0  0
 20 66  1  0  0  0
 20 67  1  0  0  0
 21 68  1  0  0  0
 22 69  1  0  0  0
 25 70  1  0  0  0
 25 71  1  0  0  0
 26 72  1  0  0  0
 27 73  1  0  0  0
 27 74  1  0  0  0
 27 75  1  0  0  0
 28 76  1  0  0  0
 28 77  1  0  0  0
 28 78  1  0  0  0
 29 79  1  0  0  0
 30 80  1  0  0  0
 31 81  1  0  0  0
 33 82  1  0  0  0
 33 83  1  0  0  0
 34 84  1  0  0  0
 35 85  1  0  0  0
 36 86  1  0  0  0
 37 87  1  0  0  0
 40 88  1  0  0  0
 42 89  1  0  0  0
 42 90  1  0  0  0
 44 91  1  0  0  0
 45 92  1  0  0  0
 46 93  1  0  0  0
 47 94  1  0  0  0
 48 95  1  0  0  0
M  END
$$$$
