4ogi_ligand
  -I-interpret- 

 78 82  0  0  0  0  0  0  0  0999 V2000
   22.0990    6.0260   19.8490 N   0  0  0  0  0
   22.5070   10.1000   20.2630 N   0  0  0  0  0
   22.9140    6.6980   19.0250 C   0  0  0  0  0
   23.1010   10.9070   19.2010 C   0  0  0  0  0
   24.1260   10.1460   18.3270 C   0  0  0  0  0
   20.1100    6.3900   22.8780 C   0  0  0  0  0
   21.8710   10.7090   21.4700 C   0  0  0  0  0
   21.2250   10.4220   17.4630 C   0  0  0  0  0
   20.0840   11.6290   22.6820 C   0  0  0  0  0
   22.3600   12.0530   21.9480 C   0  0  0  0  0
   18.5470    5.5890   24.6110 C   0  0  0  0  0
   20.1590    7.6070   23.5240 C   0  0  0  0  0
   17.9210    7.0110   26.5120 C   0  0  0  0  0
   17.3810    8.2810   28.5280 C   0  0  0  0  0
   15.6160    9.3840   29.8540 C   0  0  0  0  0
   17.7330    8.9730   30.8460 C   0  0  0  0  0
   17.1410    6.1350   26.8500 O   0  0  0  0  0
   18.0760    8.1570   27.2160 N   0  0  0  0  0
   18.4170    8.8800   29.5030 C   0  0  0  0  0
   16.6330    9.9120   30.7700 N   0  3  0  0  0
   16.0550   10.1460   32.1240 C   0  0  0  0  0
   16.1180    9.1120   28.4260 C   0  0  0  0  0
   18.6600    6.8400   25.2310 C   0  0  0  0  0
   19.2910    5.3770   23.4070 C   0  0  0  0  0
   19.2050    4.2010   22.6200 O   0  0  0  0  0
   18.2860    3.1510   23.1800 C   0  0  0  0  0
   19.4480    7.8460   24.6840 C   0  0  0  0  0
   20.7990    6.0180   21.6700 N   0  0  0  0  0
   21.5660    6.7780   20.8480 C   0  0  0  0  0
   21.7470    8.1050   21.0300 N   0  0  0  0  0
   22.4900    8.7540   20.1820 C   0  0  0  0  0
   21.4420   12.0980   23.2340 C   0  0  0  0  0
   20.3700   10.8670   21.4060 C   0  0  0  0  0
   21.9860   11.5050   18.2460 C   0  0  0  0  0
   24.8620   10.7910   17.6110 O   0  0  0  0  0
   24.1170    8.7740   18.3880 N   0  0  0  0  0
   25.0450    7.9440   17.6180 C   0  0  0  0  0
   23.1620    8.0730   19.1270 C   0  0  0  0  0
   23.4125    6.1434   18.2300 H   0  0  0  0  0
   23.6336   11.7009   19.7245 H   0  0  0  0  0
   22.1908    9.9370   22.1699 H   0  0  0  0  0
   21.9266    9.8616   16.8451 H   0  0  0  0  0
   20.7352    9.7456   18.1635 H   0  0  0  0  0
   20.4757   10.8939   16.8274 H   0  0  0  0  0
   19.4304   12.4793   22.4873 H   0  0  0  0  0
   19.5699   10.9954   23.4047 H   0  0  0  0  0
   22.2731   12.8861   21.2505 H   0  0  0  0  0
   23.4334   12.1603   22.1042 H   0  0  0  0  0
   17.9155    4.8057   25.0302 H   0  0  0  0  0
   20.7762    8.4031   23.1076 H   0  0  0  0  0
   17.0355    7.3117   28.8873 H   0  0  0  0  0
   14.8344   10.1398   29.7774 H   0  0  0  0  0
   15.2862    8.4286   30.2621 H   0  0  0  0  0
   18.4491    9.3153   31.5931 H   0  0  0  0  0
   17.3510    7.9911   31.1255 H   0  0  0  0  0
   18.6543    8.9167   26.8571 H   0  0  0  0  0
   18.7512    9.8609   29.1651 H   0  0  0  0  0
   19.3081    8.2549   29.5600 H   0  0  0  0  0
   16.9710   10.8070   30.4163 H   0  0  0  0  0
   15.2398   10.8658   32.0502 H   0  0  0  0  0
   15.6758    9.2053   32.5233 H   0  0  0  0  0
   16.8283   10.5374   32.7851 H   0  0  0  0  0
   15.3593    8.5778   27.8540 H   0  0  0  0  0
   16.3240   10.0511   27.9125 H   0  0  0  0  0
   18.6377    2.8512   24.1672 H   0  0  0  0  0
   17.2779    3.5576   23.2601 H   0  0  0  0  0
   18.2785    2.2857   22.5173 H   0  0  0  0  0
   19.5047    8.8205   25.1689 H   0  0  0  0  0
   20.6958    5.0421   21.3917 H   0  0  0  0  0
   21.8127   11.4755   24.0483 H   0  0  0  0  0
   21.4000   13.0837   23.6974 H   0  0  0  0  0
   19.8368    9.9187   21.3387 H   0  0  0  0  0
   20.0261   11.3805   20.5082 H   0  0  0  0  0
   22.4801   12.1536   17.5226 H   0  0  0  0  0
   21.2646   12.0352   18.8677 H   0  0  0  0  0
   25.5952    7.2916   18.2960 H   0  0  0  0  0
   24.4840    7.3394   16.9054 H   0  0  0  0  0
   25.7443    8.5852   17.0813 H   0  0  0  0  0
  1  3  4  0  0  0
 29  1  4  0  0  0
  2  4  1  0  0  0
  2  7  1  0  0  0
 31  2  1  0  0  0
  3 38  4  0  0  0
  4  5  1  0  0  0
  4 34  1  0  0  0
  5 35  2  0  0  0
  5 36  1  0  0  0
  6 12  4  0  0  0
  6 24  4  0  0  0
 28  6  1  0  0  0
  7 10  1  0  0  0
  7 33  1  0  0  0
 34  8  1  0  0  0
  9 32  1  0  0  0
 33  9  1  0  0  0
 10 32  1  0  0  0
 11 23  4  0  0  0
 24 11  4  0  0  0
 12 27  4  0  0  0
 13 17  2  0  0  0
 13 18  1  0  0  0
 23 13  1  0  0  0
 18 14  1  0  0  0
 14 19  1  0  0  0
 14 22  1  0  0  0
 15 20  1  0  0  0
 22 15  1  0  0  0
 19 16  1  0  0  0
 16 20  1  0  0  0
 20 21  1  0  0  0
 27 23  4  0  0  0
 24 25  1  0  0  0
 25 26  1  0  0  0
 29 28  1  0  0  0
 30 29  4  0  0  0
 30 31  4  0  0  0
 31 38  4  0  0  0
 36 37  1  0  0  0
 36 38  1  0  0  0
  3 39  1  0  0  0
  4 40  1  0  0  0
  7 41  1  0  0  0
  8 42  1  0  0  0
  8 43  1  0  0  0
  8 44  1  0  0  0
  9 45  1  0  0  0
  9 46  1  0  0  0
 10 47  1  0  0  0
 10 48  1  0  0  0
 11 49  1  0  0  0
 12 50  1  0  0  0
 14 51  1  0  0  0
 15 52  1  0  0  0
 15 53  1  0  0  0
 16 54  1  0  0  0
 16 55  1  0  0  0
 18 56  1  0  0  0
 19 57  1  0  0  0
 19 58  1  0  0  0
 20 59  1  0  0  0
 21 60  1  0  0  0
 21 61  1  0  0  0
 21 62  1  0  0  0
 22 63  1  0  0  0
 22 64  1  0  0  0
 26 65  1  0  0  0
 26 66  1  0  0  0
 26 67  1  0  0  0
 27 68  1  0  0  0
 28 69  1  0  0  0
 32 70  1  0  0  0
 32 71  1  0  0  0
 33 72  1  0  0  0
 33 73  1  0  0  0
 34 74  1  0  0  0
 34 75  1  0  0  0
 37 76  1  0  0  0
 37 77  1  0  0  0
 37 78  1  0  0  0
M  END
$$$$
