3ud7_ligand
  -I-interpret- 

 56 57  0  0  0  0  0  0  0  0999 V2000
  -24.8680  -13.8100   59.6400 C   0  0  0  0  0
  -25.1800  -12.8000   58.5430 C   0  0  0  0  0
  -24.8810  -11.4580   59.0050 N   0  0  0  0  0
  -24.0500  -10.4580   58.0730 S   0  0  0  0  0
  -22.6400  -10.7990   58.2400 O   0  0  0  0  0
  -24.5050  -10.6820   56.7040 O   0  0  0  0  0
  -24.3420   -9.1060   58.5400 O   0  0  0  0  0
  -26.6400  -12.8910   58.1170 C   0  0  0  0  0
  -26.8360  -12.1320   56.9450 O   0  0  0  0  0
  -27.0440  -14.3380   57.8580 C   0  0  0  0  0
  -26.6000  -15.2410   59.0020 C   0  0  0  0  0
  -25.2100  -15.1050   59.1970 O   0  0  0  0  0
  -26.9300  -16.6990   58.7060 C   0  0  0  0  0
  -25.7620  -17.3700   58.2880 O   0  0  0  0  0
  -28.4440  -14.4160   57.7140 O   0  0  0  0  0
  -27.3340   -8.9370   60.7630 S   0  0  0  0  0
  -27.7160  -11.2890   62.9130 C   0  0  0  0  0
  -27.6080  -11.2650   64.3320 O   0  0  0  0  0
  -26.3980  -10.8520   62.2610 C   0  0  0  0  0
  -26.6250  -10.2950   60.9590 O   0  0  0  0  0
  -25.3480  -11.9680   62.2530 C   0  0  0  0  0
  -24.6810  -11.8570   63.5160 O   0  0  0  0  0
  -25.8750  -13.4090   62.1220 C   0  0  0  0  0
  -25.6140  -13.4970   60.7950 O   0  0  0  0  0
  -27.2380  -13.6600   62.7860 C   0  0  0  0  0
  -28.1690  -12.5960   62.5430 O   0  0  0  0  0
  -27.9050  -14.8650   62.1920 C   0  0  0  0  0
  -27.0280  -12.0830   64.8810 C   0  0  0  0  0
  -27.8600  -15.9360   62.8810 O   0  0  0  0  0
  -28.5390  -14.7800   61.0770 O   0  0  0  0  0
  -27.9010   -8.8840   59.3810 O   0  0  0  0  0
  -26.2990   -7.9050   60.8950 O   0  0  0  0  0
  -28.4030   -8.7000   61.7940 O   0  0  0  0  0
  -23.8041  -13.7740   59.8743 H   0  0  0  0  0
  -24.5569  -13.0306   57.6789 H   0  0  0  0  0
  -25.2005  -11.1519   59.9240 H   0  0  0  0  0
  -22.3788  -10.6389   59.1498 H   0  0  0  0  0
  -27.2595  -12.4985   58.9234 H   0  0  0  0  0
  -26.5814  -11.2210   57.1088 H   0  0  0  0  0
  -26.5559  -14.6745   56.9433 H   0  0  0  0  0
  -27.1340  -14.9418   59.9039 H   0  0  0  0  0
  -27.6798  -16.7487   57.9164 H   0  0  0  0  0
  -27.3189  -17.1736   59.6069 H   0  0  0  0  0
  -25.9711  -18.2883   58.1018 H   0  0  0  0  0
  -28.6975  -15.3275   57.5509 H   0  0  0  0  0
  -28.4456  -10.5685   62.5433 H   0  0  0  0  0
  -25.9767  -10.0597   62.8798 H   0  0  0  0  0
  -24.7279  -11.8246   61.3681 H   0  0  0  0  0
  -24.0029  -12.5336   63.5791 H   0  0  0  0  0
  -25.4557  -14.2514   62.6721 H   0  0  0  0  0
  -27.0179  -13.7682   63.8480 H   0  0  0  0  0
  -27.4812  -13.0517   64.6704 H   0  0  0  0  0
  -25.9925  -12.0832   64.5407 H   0  0  0  0  0
  -27.0593  -11.8913   65.9536 H   0  0  0  0  0
  -28.4463  -13.8919   60.7244 H   0  0  0  0  0
  -28.0144   -8.7390   62.6710 H   0  0  0  0  0
  1  2  1  0  0  0
  1 12  1  0  0  0
 24  1  1  0  0  0
  2  3  1  0  0  0
  2  8  1  0  0  0
  3  4  1  0  0  0
  4  5  1  0  0  0
  4  6  2  0  0  0
  4  7  2  0  0  0
  8  9  1  0  0  0
  8 10  1  0  0  0
 11 10  1  0  0  0
 10 15  1  0  0  0
 12 11  1  0  0  0
 11 13  1  0  0  0
 13 14  1  0  0  0
 20 16  1  0  0  0
 16 31  2  0  0  0
 16 32  2  0  0  0
 16 33  1  0  0  0
 17 18  1  0  0  0
 19 17  1  0  0  0
 17 26  1  0  0  0
 18 28  1  0  0  0
 19 20  1  0  0  0
 21 19  1  0  0  0
 21 22  1  0  0  0
 23 21  1  0  0  0
 23 24  1  0  0  0
 23 25  1  0  0  0
 25 26  1  0  0  0
 25 27  1  0  0  0
 27 29  2  0  0  0
 27 30  1  0  0  0
  1 34  1  0  0  0
  2 35  1  0  0  0
  3 36  1  0  0  0
  5 37  1  0  0  0
  8 38  1  0  0  0
  9 39  1  0  0  0
 10 40  1  0  0  0
 11 41  1  0  0  0
 13 42  1  0  0  0
 13 43  1  0  0  0
 14 44  1  0  0  0
 15 45  1  0  0  0
 17 46  1  0  0  0
 19 47  1  0  0  0
 21 48  1  0  0  0
 22 49  1  0  0  0
 23 50  1  0  0  0
 25 51  1  0  0  0
 28 52  1  0  0  0
 28 53  1  0  0  0
 28 54  1  0  0  0
 30 55  1  0  0  0
 33 56  1  0  0  0
M  END
$$$$
