5dy5_ligand
  -I-interpret- 

 66 70  0  0  0  0  0  0  0  0999 V2000
    2.3090    2.5260   24.1620 C   0  0  0  0  0
    1.9150   -0.1700   24.7320 C   0  0  0  0  0
    1.5660   -2.2470   25.5910 C   0  0  0  0  0
    7.6430    0.6510   22.4520 C   0  0  0  0  0
    8.4400    0.8040   19.1210 C   0  0  0  0  0
    8.1410   -0.7580   16.8150 C   0  0  0  0  0
    5.4660    0.2010   14.7980 C   0  0  0  0  0
    6.8610    3.8090   12.4660 C   0  0  0  0  0
    7.1740    0.5660   18.5870 C   0  0  0  0  0
    3.7500    3.5880   22.5680 O   0  0  0  0  0
    3.5930    2.6730   23.3710 C   0  0  0  0  0
    1.1160    1.1640   23.9230 S   0  0  0  0  0
    1.0860   -1.2160   24.8730 N   0  0  0  0  0
    0.6420   -3.4060   25.8100 C   0  0  0  0  0
    2.8470   -2.2210   26.1180 C   0  0  0  0  0
    3.6290   -1.1000   25.9020 C   0  0  0  0  0
    5.0480   -1.0190   26.3780 C   0  0  0  0  0
    3.1620   -0.0440   25.2140 N   0  0  0  0  0
    4.5640    1.7610   23.6750 N   0  0  0  0  0
    5.7220    1.5700   22.9460 C   0  0  0  0  0
    6.1540    2.4510   21.5210 S   0  0  0  0  0
    7.6080    1.5210   21.4210 C   0  0  0  0  0
    6.5830    0.6670   23.3220 N   0  0  0  0  0
    8.6110    1.7110   20.3210 C   0  0  0  0  0
    7.0310   -0.2120   17.4470 C   0  0  0  0  0
    9.3960   -0.5340   17.3560 C   0  0  0  0  0
    9.5430    0.2350   18.4990 C   0  0  0  0  0
    5.7080   -0.2650   17.0830 O   0  0  0  0  0
    5.2950   -0.8420   15.8460 C   0  0  0  0  0
    4.4620    1.0560   14.4650 N   0  0  0  0  0
    4.8980    1.8970   13.5560 N   0  0  0  0  0
    6.1760    1.5740   13.3050 N   0  0  0  0  0
    6.5610    0.5320   14.0580 C   0  0  0  0  0
    6.9420    2.3110   12.2900 C   0  0  0  0  0
    6.3080    4.6140   11.4770 C   0  0  0  0  0
    6.2270    5.9870   11.6440 C   0  0  0  0  0
    6.6990    6.5740   12.8010 C   0  0  0  0  0
    7.2510    5.7860   13.7910 C   0  0  0  0  0
    7.3330    4.4130   13.6240 C   0  0  0  0  0
    1.7374    3.4032   23.8590 H   0  0  0  0  0
    2.6690    2.3559   25.1767 H   0  0  0  0  0
    8.4787   -0.0356   22.5876 H   0  0  0  0  0
    8.0262   -1.3526   15.9087 H   0  0  0  0  0
    6.2933    0.9928   19.0670 H   0  0  0  0  0
   -0.2471   -3.0650   26.3404 H   0  0  0  0  0
    0.3532   -3.8259   24.8465 H   0  0  0  0  0
    1.1501   -4.1673   26.4019 H   0  0  0  0  0
    3.2307   -3.0655   26.6905 H   0  0  0  0  0
    5.0731   -1.1295   27.4621 H   0  0  0  0  0
    5.6307   -1.8163   25.9166 H   0  0  0  0  0
    5.4685   -0.0525   26.1002 H   0  0  0  0  0
    4.4237    1.1786   24.5005 H   0  0  0  0  0
    8.4862    2.7317   19.9595 H   0  0  0  0  0
    9.5874    1.4813   20.7476 H   0  0  0  0  0
   10.2754   -0.9663   16.8786 H   0  0  0  0  0
   10.5375    0.3953   18.9153 H   0  0  0  0  0
    5.8934   -1.7229   15.6135 H   0  0  0  0  0
    4.2557   -1.1660   15.9005 H   0  0  0  0  0
    7.5400    0.0531   14.0741 H   0  0  0  0  0
    7.9881    2.0204   12.3862 H   0  0  0  0  0
    6.5224    2.0672   11.3140 H   0  0  0  0  0
    5.9338    4.1599   10.5595 H   0  0  0  0  0
    5.7896    6.6052   10.8600 H   0  0  0  0  0
    6.6361    7.6543   12.9321 H   0  0  0  0  0
    7.6234    6.2453   14.7067 H   0  0  0  0  0
    7.7730    3.7999   14.4105 H   0  0  0  0  0
 11  1  1  0  0  0
  1 12  1  0  0  0
 12  2  1  0  0  0
  2 13  4  0  0  0
  2 18  4  0  0  0
 13  3  4  0  0  0
  3 14  1  0  0  0
  3 15  4  0  0  0
 22  4  4  0  0  0
  4 23  4  0  0  0
  9  5  4  0  0  0
  5 24  1  0  0  0
  5 27  4  0  0  0
 25  6  4  0  0  0
  6 26  4  0  0  0
  7 29  1  0  0  0
  7 30  4  0  0  0
 33  7  4  0  0  0
 34  8  1  0  0  0
  8 35  4  0  0  0
  8 39  4  0  0  0
 25  9  4  0  0  0
 11 10  2  0  0  0
 19 11  1  0  0  0
 16 15  4  0  0  0
 16 17  1  0  0  0
 18 16  4  0  0  0
 20 19  1  0  0  0
 21 20  4  0  0  0
 20 23  4  0  0  0
 22 21  4  0  0  0
 24 22  1  0  0  0
 28 25  1  0  0  0
 26 27  4  0  0  0
 29 28  1  0  0  0
 31 30  4  0  0  0
 32 31  4  0  0  0
 32 33  4  0  0  0
 32 34  1  0  0  0
 35 36  4  0  0  0
 36 37  4  0  0  0
 37 38  4  0  0  0
 38 39  4  0  0  0
  1 40  1  0  0  0
  1 41  1  0  0  0
  4 42  1  0  0  0
  6 43  1  0  0  0
  9 44  1  0  0  0
 14 45  1  0  0  0
 14 46  1  0  0  0
 14 47  1  0  0  0
 15 48  1  0  0  0
 17 49  1  0  0  0
 17 50  1  0  0  0
 17 51  1  0  0  0
 19 52  1  0  0  0
 24 53  1  0  0  0
 24 54  1  0  0  0
 26 55  1  0  0  0
 27 56  1  0  0  0
 29 57  1  0  0  0
 29 58  1  0  0  0
 33 59  1  0  0  0
 34 60  1  0  0  0
 34 61  1  0  0  0
 35 62  1  0  0  0
 36 63  1  0  0  0
 37 64  1  0  0  0
 38 65  1  0  0  0
 39 66  1  0  0  0
M  END
$$$$
