3d1v_ligand
  -I-interpret- 

 18 19  0  0  0  0  0  0  0  0999 V2000
   52.8530   49.5220   24.0680 O   0  0  0  0  0
   53.7750   48.7590   24.8120 C   0  0  0  0  0
   53.0310   47.9700   25.7960 C   0  0  0  0  0
   53.6970   47.0730   26.7110 C   0  0  0  0  0
   55.0890   46.9370   26.6650 N   0  0  0  0  0
   55.6840   47.7130   25.7560 C   0  0  0  0  0
   57.3190   47.4830   25.8650 S   0  0  0  0  0
   55.1480   48.5820   24.8370 N   0  0  0  0  0
   52.8740   46.3840   27.5850 C   0  0  0  0  0
   51.4240   46.5350   27.6570 C   0  0  0  0  0
   50.8020   47.4530   26.7460 C   0  0  0  0  0
   51.6350   48.1260   25.7580 C   0  0  0  0  0
   55.6042   46.3004   27.2730 H   0  0  0  0  0
   55.7495   49.0868   24.1860 H   0  0  0  0  0
   53.3429   45.6771   28.2694 H   0  0  0  0  0
   50.8337   45.9697   28.3782 H   0  0  0  0  0
   49.7296   47.6427   26.7922 H   0  0  0  0  0
   51.1761   48.7494   24.9907 H   0  0  0  0  0
  1  2  2  0  0  0
  2  3  1  0  0  0
  2  8  1  0  0  0
  3  4  4  0  0  0
  3 12  4  0  0  0
  4  5  1  0  0  0
  4  9  4  0  0  0
  5  6  1  0  0  0
  6  7  2  0  0  0
  6  8  1  0  0  0
  9 10  4  0  0  0
 10 11  4  0  0  0
 11 12  4  0  0  0
  5 13  1  0  0  0
  8 14  1  0  0  0
  9 15  1  0  0  0
 10 16  1  0  0  0
 11 17  1  0  0  0
 12 18  1  0  0  0
M  END
$$$$
