5t6p_ligand
  -I-interpret- 

 92 93  0  0  0  0  0  0  0  0999 V2000
   73.9950   58.7700   50.5510 N   0  3  0  0  0
   73.3180   59.5250   51.5980 C   0  0  0  0  0
   72.1430   60.3090   51.0270 C   0  0  0  0  0
   71.9880   61.5020   51.2700 O   0  0  0  0  0
   74.3080   60.4660   52.2860 C   0  0  0  0  0
   75.3450   61.0020   51.3300 C   0  0  0  0  0
   75.2220   60.7330   50.1190 O   0  0  0  0  0
   76.2780   61.6950   51.7880 O   0  0  0  0  0
   71.3130   59.6230   50.2520 N   0  0  0  0  0
   70.0530   60.1950   49.8160 C   0  0  0  0  0
   69.0540   60.1500   50.9650 C   0  0  0  0  0
   69.1480   59.3070   51.8600 O   0  0  0  0  0
   69.5240   59.4180   48.6130 C   0  0  0  0  0
   69.3800   58.0370   48.9650 O   0  0  0  0  0
   70.5070   59.5360   47.4590 C   0  0  0  0  0
   68.0930   61.0630   50.9460 N   0  0  0  0  0
   67.1180   61.0830   52.0230 C   0  0  0  0  0
   66.3250   59.7800   52.0040 C   0  0  0  0  0
   65.8130   59.3870   50.9460 O   0  0  0  0  0
   66.1640   62.2660   51.8990 C   0  0  0  0  0
   65.4210   62.5590   53.1960 C   0  0  0  0  0
   64.1440   63.3180   52.9190 C   0  0  0  0  0
   64.4290   64.6540   52.4100 N   0  0  0  0  0
   63.5980   65.3670   51.6580 C   0  0  0  0  0
   62.4130   64.8760   51.3130 N   0  0  0  0  0
   63.9580   66.5740   51.2430 N   0  0  0  0  0
   66.1810   59.0960   53.1360 N   0  0  0  0  0
   65.4060   57.8530   53.1420 C   0  0  0  0  0
   63.9160   58.0990   52.9540 C   0  0  0  0  0
   63.3740   59.1470   53.3150 O   0  0  0  0  0
   65.7050   57.2610   54.5220 C   0  0  0  0  0
   65.9910   58.4430   55.3660 C   0  0  0  0  0
   66.7450   59.3830   54.4660 C   0  0  0  0  0
   63.2550   57.1010   52.3810 N   0  0  0  0  0
   61.8200   57.1540   52.1830 C   0  0  0  0  0
   61.0960   57.0690   53.5260 C   0  0  0  0  0
   61.6350   56.5340   54.4970 O   0  0  0  0  0
   61.3740   56.0090   51.2830 C   0  0  0  0  0
   59.8710   57.6080   53.6170 N   0  0  0  0  0
   59.1400   57.5170   54.8830 C   0  0  0  0  0
   58.6190   56.1220   55.2130 C   0  0  0  0  0
   58.3760   55.3370   54.2960 O   0  0  0  0  0
   57.9940   58.5030   54.6670 C   0  0  0  0  0
   57.7290   58.4450   53.2230 C   0  0  0  0  0
   59.1140   58.3920   52.6270 C   0  0  0  0  0
   58.4500   55.8050   56.3910 O   0  0  0  0  0
   73.3276   58.1456   50.0980 H   0  0  0  0  0
   74.3795   59.4163   49.8619 H   0  0  0  0  0
   74.7499   58.2216   50.9630 H   0  0  0  0  0
   72.9276   58.8236   52.3353 H   0  0  0  0  0
   74.8236   59.9045   53.0651 H   0  0  0  0  0
   73.7489   61.3110   52.6879 H   0  0  0  0  0
   76.1782   61.7753   52.7394 H   0  0  0  0  0
   71.5645   58.6792   49.9582 H   0  0  0  0  0
   70.2020   61.2331   49.5190 H   0  0  0  0  0
   68.5582   59.8266   48.3157 H   0  0  0  0  0
   69.0474   57.5482   48.2087 H   0  0  0  0  0
   70.6253   60.5857   47.1901 H   0  0  0  0  0
   71.4708   59.1261   47.7610 H   0  0  0  0  0
   70.1271   58.9805   46.6015 H   0  0  0  0  0
   68.0389   61.7415   50.1864 H   0  0  0  0  0
   67.6540   61.1870   52.9664 H   0  0  0  0  0
   65.4241   62.0213   51.1369 H   0  0  0  0  0
   66.7536   63.1467   51.6443 H   0  0  0  0  0
   66.0592   63.1651   53.8390 H   0  0  0  0  0
   65.1722   61.6151   53.6810 H   0  0  0  0  0
   63.5840   63.4108   53.8495 H   0  0  0  0  0
   63.5698   62.7737   52.1692 H   0  0  0  0  0
   65.3293   65.0703   52.6479 H   0  0  0  0  0
   61.7827   65.4270   50.7304 H   0  0  0  0  0
   62.1334   63.9479   51.6307 H   0  0  0  0  0
   64.8697   66.9513   51.5014 H   0  0  0  0  0
   65.6767   57.1904   52.3199 H   0  0  0  0  0
   66.5389   56.5595   54.4982 H   0  0  0  0  0
   64.8734   56.6707   54.9068 H   0  0  0  0  0
   66.5678   58.1792   56.2524 H   0  0  0  0  0
   65.0783   58.8960   55.7533 H   0  0  0  0  0
   66.6301   60.4274   54.7561 H   0  0  0  0  0
   67.8237   59.2323   54.5079 H   0  0  0  0  0
   63.7695   56.2762   52.0723 H   0  0  0  0  0
   61.5692   58.1016   51.7063 H   0  0  0  0  0
   61.8726   56.0922   50.3173 H   0  0  0  0  0
   61.6370   55.0591   51.7484 H   0  0  0  0  0
   60.2944   56.0592   51.1415 H   0  0  0  0  0
   59.7807   57.7405   55.7360 H   0  0  0  0  0
   58.2526   59.5096   54.9956 H   0  0  0  0  0
   57.1140   58.2432   55.2555 H   0  0  0  0  0
   57.1470   59.2944   52.8654 H   0  0  0  0  0
   57.1138   57.5909   52.9399 H   0  0  0  0  0
   59.1292   57.9448   51.6331 H   0  0  0  0  0
   59.5389   59.3813   52.4574 H   0  0  0  0  0
   58.6915   56.5416   56.9572 H   0  0  0  0  0
  1  2  1  0  0  0
  2  3  1  0  0  0
  2  5  1  0  0  0
  3  4  2  0  0  0
  3  9  1  0  0  0
  5  6  1  0  0  0
  6  7  2  0  0  0
  6  8  1  0  0  0
  9 10  1  0  0  0
 10 11  1  0  0  0
 10 13  1  0  0  0
 11 12  2  0  0  0
 11 16  1  0  0  0
 13 14  1  0  0  0
 13 15  1  0  0  0
 16 17  1  0  0  0
 17 18  1  0  0  0
 17 20  1  0  0  0
 18 19  2  0  0  0
 18 27  1  0  0  0
 20 21  1  0  0  0
 21 22  1  0  0  0
 22 23  1  0  0  0
 23 24  1  0  0  0
 24 25  1  0  0  0
 24 26  2  0  0  0
 27 28  1  0  0  0
 27 33  1  0  0  0
 28 29  1  0  0  0
 28 31  1  0  0  0
 29 30  2  0  0  0
 29 34  1  0  0  0
 31 32  1  0  0  0
 32 33  1  0  0  0
 34 35  1  0  0  0
 35 36  1  0  0  0
 35 38  1  0  0  0
 36 37  2  0  0  0
 36 39  1  0  0  0
 39 40  1  0  0  0
 39 45  1  0  0  0
 40 41  1  0  0  0
 40 43  1  0  0  0
 41 42  2  0  0  0
 41 46  1  0  0  0
 43 44  1  0  0  0
 44 45  1  0  0  0
  1 47  1  0  0  0
  1 48  1  0  0  0
  1 49  1  0  0  0
  2 50  1  0  0  0
  5 51  1  0  0  0
  5 52  1  0  0  0
  8 53  1  0  0  0
  9 54  1  0  0  0
 10 55  1  0  0  0
 13 56  1  0  0  0
 14 57  1  0  0  0
 15 58  1  0  0  0
 15 59  1  0  0  0
 15 60  1  0  0  0
 16 61  1  0  0  0
 17 62  1  0  0  0
 20 63  1  0  0  0
 20 64  1  0  0  0
 21 65  1  0  0  0
 21 66  1  0  0  0
 22 67  1  0  0  0
 22 68  1  0  0  0
 23 69  1  0  0  0
 25 70  1  0  0  0
 25 71  1  0  0  0
 26 72  1  0  0  0
 28 73  1  0  0  0
 31 74  1  0  0  0
 31 75  1  0  0  0
 32 76  1  0  0  0
 32 77  1  0  0  0
 33 78  1  0  0  0
 33 79  1  0  0  0
 34 80  1  0  0  0
 35 81  1  0  0  0
 38 82  1  0  0  0
 38 83  1  0  0  0
 38 84  1  0  0  0
 40 85  1  0  0  0
 43 86  1  0  0  0
 43 87  1  0  0  0
 44 88  1  0  0  0
 44 89  1  0  0  0
 45 90  1  0  0  0
 45 91  1  0  0  0
 46 92  1  0  0  0
M  END
$$$$
