5vqu_ligand
  -I-interpret- 

 60 63  0  0  0  0  0  0  0  0999 V2000
  847.8430  -30.9520  145.3440 C   0  0  0  0  0
  845.7510  -33.9500  140.6990 N   0  0  0  0  0
  848.7570  -30.9030  142.7050 C   0  0  0  0  0
  845.2400  -36.3230  142.1320 C   0  0  0  0  0
  844.4410  -35.1300  142.3300 C   0  0  0  0  0
  844.7330  -34.0260  141.6160 C   0  0  0  0  0
  844.8500  -31.0350  145.5160 C   0  0  0  0  0
  844.1840  -31.9410  146.3420 C   0  0  0  0  0
  843.3290  -31.4790  147.3850 C   0  0  0  0  0
  843.1550  -30.0700  147.5700 C   0  0  0  0  0
  843.8500  -29.1670  146.7010 C   0  0  0  0  0
  844.6730  -29.6660  145.6920 C   0  0  0  0  0
  842.6410  -32.3800  148.2470 C   0  0  0  0  0
  847.4230  -31.2210  142.9650 C   0  0  0  0  0
  841.8120  -31.9130  149.2600 C   0  0  0  0  0
  841.6460  -30.5450  149.4400 C   0  0  0  0  0
  842.2970  -29.6320  148.6180 C   0  0  0  0  0
  841.1210  -32.8560  150.1290 C   0  0  0  0  0
  844.3730  -33.4440  146.1410 C   0  0  0  0  0
  844.5970  -27.0310  147.5610 C   0  0  0  0  0
  845.7360  -27.7420  148.3090 C   0  0  0  0  0
  842.6170  -27.1690  146.0660 C   0  0  0  0  0
  846.9630  -31.2390  144.2930 C   0  0  0  0  0
  849.1740  -30.6370  145.0690 C   0  0  0  0  0
  849.6300  -30.6130  143.7530 C   0  0  0  0  0
  847.1400  -31.9000  140.6220 C   0  0  0  0  0
  846.0440  -32.7290  139.9400 C   0  0  0  0  0
  846.5550  -35.0490  140.4640 C   0  0  0  0  0
  846.2830  -26.9310  149.2150 F   0  0  0  0  0
  846.2280  -36.1560  141.2070 N   0  0  0  0  0
  843.7290  -27.7670  146.8110 N   0  0  0  0  0
  840.5730  -33.6060  150.8190 N   0  0  0  0  0
  845.6480  -31.5630  144.5250 O   0  0  0  0  0
  846.6230  -31.4930  141.8730 O   0  0  0  0  0
  847.4940  -35.0900  139.6670 O   0  0  0  0  0
  845.0530  -37.3780  142.7310 O   0  0  0  0  0
  844.5030  -25.8030  147.6660 O   0  0  0  0  0
  847.4888  -30.9747  146.3746 H   0  0  0  0  0
  849.1184  -30.8812  141.6769 H   0  0  0  0  0
  843.6179  -35.1264  143.0445 H   0  0  0  0  0
  844.1226  -33.1374  141.7766 H   0  0  0  0  0
  845.1874  -28.9707  145.0287 H   0  0  0  0  0
  842.7667  -33.4540  148.1099 H   0  0  0  0  0
  840.9963  -30.1828  150.2368 H   0  0  0  0  0
  842.1481  -28.5642  148.7785 H   0  0  0  0  0
  844.0511  -33.7182  145.1364 H   0  0  0  0  0
  845.4256  -33.6968  146.2683 H   0  0  0  0  0
  843.7767  -33.9853  146.8755 H   0  0  0  0  0
  846.5013  -28.0343  147.5900 H   0  0  0  0  0
  845.3313  -28.6169  148.8178 H   0  0  0  0  0
  842.7346  -27.3856  145.0042 H   0  0  0  0  0
  841.6759  -27.5884  146.4216 H   0  0  0  0  0
  842.6167  -26.0900  146.2202 H   0  0  0  0  0
  849.8587  -30.4091  145.8859 H   0  0  0  0  0
  850.6708  -30.3672  143.5421 H   0  0  0  0  0
  847.4088  -31.0365  140.0136 H   0  0  0  0  0
  848.0486  -32.4884  140.7503 H   0  0  0  0  0
  845.1366  -32.1276  139.8855 H   0  0  0  0  0
  846.3904  -33.0124  138.9461 H   0  0  0  0  0
  846.8113  -36.9764  141.0426 H   0  0  0  0  0
 23  1  4  0  0  0
  1 24  4  0  0  0
  2  6  1  0  0  0
 27  2  1  0  0  0
  2 28  1  0  0  0
 14  3  4  0  0  0
  3 25  4  0  0  0
  5  4  1  0  0  0
  4 30  1  0  0  0
  4 36  2  0  0  0
  6  5  2  0  0  0
  7  8  4  0  0  0
  7 12  4  0  0  0
 33  7  1  0  0  0
  8  9  4  0  0  0
  8 19  1  0  0  0
  9 10  4  0  0  0
  9 13  4  0  0  0
 11 10  4  0  0  0
 10 17  4  0  0  0
 12 11  4  0  0  0
 11 31  1  0  0  0
 13 15  4  0  0  0
 14 23  4  0  0  0
 34 14  1  0  0  0
 15 16  4  0  0  0
 15 18  1  0  0  0
 17 16  4  0  0  0
 18 32  3  0  0  0
 20 21  1  0  0  0
 31 20  1  0  0  0
 20 37  2  0  0  0
 21 29  1  0  0  0
 31 22  1  0  0  0
 23 33  1  0  0  0
 25 24  4  0  0  0
 26 27  1  0  0  0
 26 34  1  0  0  0
 28 30  1  0  0  0
 28 35  2  0  0  0
  1 38  1  0  0  0
  3 39  1  0  0  0
  5 40  1  0  0  0
  6 41  1  0  0  0
 12 42  1  0  0  0
 13 43  1  0  0  0
 16 44  1  0  0  0
 17 45  1  0  0  0
 19 46  1  0  0  0
 19 47  1  0  0  0
 19 48  1  0  0  0
 21 49  1  0  0  0
 21 50  1  0  0  0
 22 51  1  0  0  0
 22 52  1  0  0  0
 22 53  1  0  0  0
 24 54  1  0  0  0
 25 55  1  0  0  0
 26 56  1  0  0  0
 26 57  1  0  0  0
 27 58  1  0  0  0
 27 59  1  0  0  0
 30 60  1  0  0  0
M  END
$$$$
