1sqc_ligand
  -I-interpret- 

 48 47  0  0  0  0  0  0  0  0999 V2000
  102.5810   33.4600   19.2120 N   0  3  0  0  0
  102.8530   32.3760   18.7100 O   0  0  0  0  0
  103.5840   34.4490   18.8610 C   0  0  0  0  0
  101.4770   34.0640   18.4940 C   0  0  0  0  0
  102.3320   33.4440   20.6670 C   0  0  0  0  0
  103.0950   32.3180   21.3980 C   0  0  0  0  0
  103.4200   32.7780   22.8450 C   0  0  0  0  0
  102.2540   32.3080   23.6980 C   0  0  0  0  0
  102.2000   32.9780   25.0480 C   0  0  0  0  0
  100.9560   32.3570   25.7470 C   0  0  0  0  0
  101.4720   31.1700   26.5600 C   0  0  0  0  0
  100.3550   30.4510   27.3390 C   0  0  0  0  0
  100.2830   31.3410   28.5710 C   0  0  0  0  0
  100.5650   30.5440   29.8380 C   0  0  0  0  0
   99.1970   30.1920   30.3850 C   0  0  0  0  0
   99.0590   28.6820   30.4450 C   0  0  0  0  0
  102.9969   32.4882   17.7675 H   0  0  0  0  0
  103.2402   35.4373   19.1661 H   0  0  0  0  0
  104.5181   34.2142   19.3713 H   0  0  0  0  0
  103.7441   34.4354   17.7829 H   0  0  0  0  0
  100.5670   33.4948   18.6838 H   0  0  0  0  0
  101.3424   35.0908   18.8341 H   0  0  0  0  0
  101.6939   34.0592   17.4258 H   0  0  0  0  0
  101.2659   33.2756   20.8194 H   0  0  0  0  0
  102.6756   34.3954   21.0729 H   0  0  0  0  0
  104.0213   32.0990   20.8669 H   0  0  0  0  0
  102.4791   31.4192   21.4294 H   0  0  0  0  0
  103.5420   33.8598   22.9001 H   0  0  0  0  0
  104.3627   32.3564   23.1937 H   0  0  0  0  0
  102.3758   31.2377   23.8643 H   0  0  0  0  0
  101.3346   32.5569   23.1680 H   0  0  0  0  0
  102.1195   34.0616   24.9615 H   0  0  0  0  0
  103.1128   32.8136   25.6206 H   0  0  0  0  0
  100.2124   32.0392   25.0162 H   0  0  0  0  0
  100.4603   33.0863   26.3877 H   0  0  0  0  0
  102.1935   31.5490   27.2838 H   0  0  0  0  0
  101.9091   30.4534   25.8646 H   0  0  0  0  0
  100.5559   29.4009   27.5512 H   0  0  0  0  0
   99.4150   30.3546   26.7956 H   0  0  0  0  0
   99.2802   31.7628   28.6393 H   0  0  0  0  0
  101.0324   32.1271   28.4785 H   0  0  0  0  0
  101.1542   31.1159   30.5549 H   0  0  0  0  0
  101.1620   29.6551   29.6342 H   0  0  0  0  0
   98.4252   30.6050   29.7354 H   0  0  0  0  0
   99.0835   30.6104   31.3851 H   0  0  0  0  0
   99.1713   28.2681   29.4429 H   0  0  0  0  0
   99.8312   28.2735   31.0969 H   0  0  0  0  0
   98.0758   28.4236   30.8382 H   0  0  0  0  0
  1  2  1  0  0  0
  1  3  1  0  0  0
  1  4  1  0  0  0
  1  5  1  0  0  0
  5  6  1  0  0  0
  6  7  1  0  0  0
  7  8  1  0  0  0
  8  9  1  0  0  0
  9 10  1  0  0  0
 10 11  1  0  0  0
 11 12  1  0  0  0
 12 13  1  0  0  0
 13 14  1  0  0  0
 14 15  1  0  0  0
 15 16  1  0  0  0
  2 17  1  0  0  0
  3 18  1  0  0  0
  3 19  1  0  0  0
  3 20  1  0  0  0
  4 21  1  0  0  0
  4 22  1  0  0  0
  4 23  1  0  0  0
  5 24  1  0  0  0
  5 25  1  0  0  0
  6 26  1  0  0  0
  6 27  1  0  0  0
  7 28  1  0  0  0
  7 29  1  0  0  0
  8 30  1  0  0  0
  8 31  1  0  0  0
  9 32  1  0  0  0
  9 33  1  0  0  0
 10 34  1  0  0  0
 10 35  1  0  0  0
 11 36  1  0  0  0
 11 37  1  0  0  0
 12 38  1  0  0  0
 12 39  1  0  0  0
 13 40  1  0  0  0
 13 41  1  0  0  0
 14 42  1  0  0  0
 14 43  1  0  0  0
 15 44  1  0  0  0
 15 45  1  0  0  0
 16 46  1  0  0  0
 16 47  1  0  0  0
 16 48  1  0  0  0
M  END
$$$$
