4jyt_ligand
  -I-interpret- 

 64 68  0  0  0  0  0  0  0  0999 V2000
   17.9750   64.1320   19.8210 O   0  0  0  0  0
   16.9890   64.5920   20.7760 S   0  0  0  0  0
   17.7560   65.4220   21.6500 O   0  0  0  0  0
   15.9130   65.6130   20.1730 C   0  0  0  0  0
   15.3370   66.6580   20.9110 C   0  0  0  0  0
   14.4460   67.5480   20.3020 C   0  0  0  0  0
   14.1590   67.4030   18.9540 C   0  0  0  0  0
   13.2790   68.2800   18.3140 C   0  0  0  0  0
   13.0130   68.1180   16.9610 C   0  0  0  0  0
   13.6250   67.1060   16.2490 C   0  0  0  0  0
   14.4990   66.2360   16.8880 C   0  0  0  0  0
   14.7650   66.3850   18.2290 C   0  0  0  0  0
   15.6510   65.5050   18.8210 C   0  0  0  0  0
   16.8360   63.5170   21.9050 N   0  0  0  0  0
   16.1920   63.5190   23.0810 C   0  0  0  0  0
   16.5500   62.4110   23.7970 C   0  0  0  0  0
   17.4980   61.6340   23.1850 O   0  0  0  0  0
   18.1650   60.6890   23.9030 C   0  0  0  0  0
   18.2210   59.3800   23.4280 C   0  0  0  0  0
   18.8830   58.4220   24.1810 C   0  0  0  0  0
   19.4700   58.7890   25.3990 C   0  0  0  0  0
   20.1780   57.7350   26.1680 C   0  0  0  0  0
   20.7980   57.9980   27.3080 N   0  0  0  0  0
   20.1600   56.5760   25.6990 N   0  0  0  0  0
   19.4080   60.1000   25.8700 C   0  0  0  0  0
   18.7480   61.0540   25.1210 C   0  0  0  0  0
   15.2360   64.3980   23.5770 C   0  0  0  0  0
   14.6670   64.1080   24.8110 C   0  0  0  0  0
   15.0500   62.9610   25.5280 C   0  0  0  0  0
   15.9900   62.1280   25.0030 N   0  0  0  0  0
   14.4910   62.6750   26.7650 O   0  0  0  0  0
   14.7260   63.5160   27.8370 C   0  0  0  0  0
   14.8850   63.0280   29.1450 C   0  0  0  0  0
   15.1140   63.9290   30.2110 C   0  0  0  0  0
   15.1780   65.3130   29.9790 C   0  0  0  0  0
   15.4000   66.3540   31.0450 C   0  0  0  0  0
   15.9600   67.4500   30.7270 N   0  0  0  0  0
   14.9820   66.1680   32.3020 N   0  0  0  0  0
   15.0110   65.7820   28.6870 C   0  0  0  0  0
   14.7930   64.9030   27.6390 C   0  0  0  0  0
   15.5854   66.7771   21.9656 H   0  0  0  0  0
   13.9826   68.3466   20.8813 H   0  0  0  0  0
   12.8045   69.0861   18.8735 H   0  0  0  0  0
   12.3187   68.7921   16.4594 H   0  0  0  0  0
   13.4222   66.9896   15.1844 H   0  0  0  0  0
   14.9752   65.4332   16.3252 H   0  0  0  0  0
   16.1387   64.7326   18.2264 H   0  0  0  0  0
   17.3224   62.6427   21.7063 H   0  0  0  0  0
   17.7524   59.1137   22.4806 H   0  0  0  0  0
   18.9461   57.3926   23.8284 H   0  0  0  0  0
   21.2697   57.2500   27.8164 H   0  0  0  0  0
   20.8039   58.9486   27.6778 H   0  0  0  0  0
   19.6725   56.3878   24.8230 H   0  0  0  0  0
   19.8748   60.3684   26.8177 H   0  0  0  0  0
   18.6819   62.0825   25.4758 H   0  0  0  0  0
   14.9425   65.2855   23.0163 H   0  0  0  0  0
   13.9149   64.7777   25.2280 H   0  0  0  0  0
   14.8319   61.9565   29.3379 H   0  0  0  0  0
   15.2422   63.5454   31.2232 H   0  0  0  0  0
   16.2510   67.6132   29.7631 H   0  0  0  0  0
   15.1135   66.9027   32.9972 H   0  0  0  0  0
   14.5317   65.2915   32.5653 H   0  0  0  0  0
   15.0515   66.8538   28.4927 H   0  0  0  0  0
   14.6700   65.3005   26.6315 H   0  0  0  0  0
  1  2  2  0  0  0
  2  3  2  0  0  0
  2  4  1  0  0  0
  2 14  1  0  0  0
  4  5  4  0  0  0
  4 13  4  0  0  0
  5  6  4  0  0  0
  6  7  4  0  0  0
  7  8  4  0  0  0
  7 12  4  0  0  0
  8  9  4  0  0  0
  9 10  4  0  0  0
 10 11  4  0  0  0
 11 12  4  0  0  0
 12 13  4  0  0  0
 14 15  1  0  0  0
 15 16  4  0  0  0
 15 27  4  0  0  0
 16 17  1  0  0  0
 16 30  4  0  0  0
 17 18  1  0  0  0
 18 19  4  0  0  0
 18 26  4  0  0  0
 19 20  4  0  0  0
 20 21  4  0  0  0
 21 22  1  0  0  0
 21 25  4  0  0  0
 22 23  1  0  0  0
 22 24  2  0  0  0
 25 26  4  0  0  0
 27 28  4  0  0  0
 28 29  4  0  0  0
 29 30  4  0  0  0
 29 31  1  0  0  0
 31 32  1  0  0  0
 32 33  4  0  0  0
 32 40  4  0  0  0
 33 34  4  0  0  0
 34 35  4  0  0  0
 35 36  1  0  0  0
 35 39  4  0  0  0
 36 37  2  0  0  0
 36 38  1  0  0  0
 39 40  4  0  0  0
  5 41  1  0  0  0
  6 42  1  0  0  0
  8 43  1  0  0  0
  9 44  1  0  0  0
 10 45  1  0  0  0
 11 46  1  0  0  0
 13 47  1  0  0  0
 14 48  1  0  0  0
 19 49  1  0  0  0
 20 50  1  0  0  0
 23 51  1  0  0  0
 23 52  1  0  0  0
 24 53  1  0  0  0
 25 54  1  0  0  0
 26 55  1  0  0  0
 27 56  1  0  0  0
 28 57  1  0  0  0
 33 58  1  0  0  0
 34 59  1  0  0  0
 37 60  1  0  0  0
 38 61  1  0  0  0
 38 62  1  0  0  0
 39 63  1  0  0  0
 40 64  1  0  0  0
M  END
$$$$
