5wik_ligand
  -I-interpret- 

 51 53  0  0  0  0  0  0  0  0999 V2000
   27.2570   67.3990   87.3530 C   0  0  0  0  0
   25.9460   66.8090   89.2230 C   0  0  0  0  0
   26.9790   66.0440   89.6820 C   0  0  0  0  0
   25.6150   64.7230   92.7450 O   0  0  0  0  0
   24.5860   72.3440   83.7460 O   0  0  0  0  0
   22.0640   70.2570   88.3650 C   0  0  0  0  0
   22.3160   71.0180   90.7550 C   0  0  0  0  0
   27.9640   64.5400   91.3480 C   0  0  0  0  0
   26.7010   69.2020   85.5260 C   0  0  0  0  0
   25.7620   69.9110   86.2620 C   0  0  0  0  0
   25.0590   70.9530   85.6690 C   0  0  0  0  0
   25.2950   71.2920   84.3440 C   0  0  0  0  0
   26.2350   70.5870   83.6090 C   0  0  0  0  0
   26.9350   69.5500   84.2020 C   0  0  0  0  0
   28.2690   66.6590   87.7940 N   0  0  0  0  0
   26.1150   67.4810   88.0350 N   0  0  0  0  0
   28.1940   65.9730   88.9270 C   0  0  0  0  0
   27.4770   68.0990   86.0840 N   0  0  0  0  0
   24.7820   66.8810   89.9450 N   0  0  0  0  0
   23.6690   67.6870   89.4480 C   0  0  0  0  0
   23.7740   69.1580   89.8660 C   0  0  0  0  0
   22.4010   69.8340   89.7950 C   0  0  0  0  0
   24.6590   66.2050   91.0900 C   0  0  0  0  0
   25.7310   65.4300   91.5460 C   0  0  0  0  0
   26.8620   65.3530   90.8560 N   0  0  0  0  0
   23.3700   66.2670   91.9110 C   0  0  0  0  0
   24.1320   71.6480   86.3890 F   0  0  0  0  0
   26.4710   70.9150   82.3060 F   0  0  0  0  0
   26.4307   64.2460   92.9141 H   0  0  0  0  0
   24.8704   72.4426   82.8344 H   0  0  0  0  0
   21.0508   70.6578   88.3352 H   0  0  0  0  0
   22.7684   71.0219   88.0382 H   0  0  0  0  0
   22.1334   69.3918   87.7056 H   0  0  0  0  0
   22.4796   70.6697   91.7748 H   0  0  0  0  0
   23.0786   71.7516   90.4935 H   0  0  0  0  0
   21.3293   71.4751   90.6797 H   0  0  0  0  0
   28.2769   64.9075   92.3253 H   0  0  0  0  0
   27.6384   63.5035   91.4354 H   0  0  0  0  0
   28.7993   64.6022   90.6505 H   0  0  0  0  0
   25.5760   69.6509   87.3041 H   0  0  0  0  0
   27.6778   69.0008   83.6234 H   0  0  0  0  0
   29.0343   65.3716   89.2739 H   0  0  0  0  0
   28.2665   67.7768   85.5242 H   0  0  0  0  0
   22.7482   67.2834   89.8691 H   0  0  0  0  0
   23.6849   67.6457   88.3589 H   0  0  0  0  0
   24.4572   69.6710   89.1892 H   0  0  0  0  0
   24.1423   69.2100   90.8906 H   0  0  0  0  0
   21.6571   69.1010   90.1071 H   0  0  0  0  0
   22.9542   65.2641   92.0084 H   0  0  0  0  0
   23.5898   66.6682   92.9003 H   0  0  0  0  0
   22.6506   66.9127   91.4073 H   0  0  0  0  0
  1 15  4  0  0  0
 16  1  4  0  0  0
  1 18  1  0  0  0
  2  3  4  0  0  0
  2 16  4  0  0  0
 19  2  1  0  0  0
  3 17  4  0  0  0
  3 25  1  0  0  0
 24  4  1  0  0  0
 12  5  1  0  0  0
 22  6  1  0  0  0
 22  7  1  0  0  0
 25  8  1  0  0  0
  9 10  4  0  0  0
  9 14  4  0  0  0
 18  9  1  0  0  0
 10 11  4  0  0  0
 11 12  4  0  0  0
 11 27  1  0  0  0
 13 12  4  0  0  0
 14 13  4  0  0  0
 13 28  1  0  0  0
 17 15  4  0  0  0
 19 20  1  0  0  0
 23 19  1  0  0  0
 20 21  1  0  0  0
 21 22  1  0  0  0
 23 24  2  0  0  0
 23 26  1  0  0  0
 24 25  1  0  0  0
  4 29  1  0  0  0
  5 30  1  0  0  0
  6 31  1  0  0  0
  6 32  1  0  0  0
  6 33  1  0  0  0
  7 34  1  0  0  0
  7 35  1  0  0  0
  7 36  1  0  0  0
  8 37  1  0  0  0
  8 38  1  0  0  0
  8 39  1  0  0  0
 10 40  1  0  0  0
 14 41  1  0  0  0
 17 42  1  0  0  0
 18 43  1  0  0  0
 20 44  1  0  0  0
 20 45  1  0  0  0
 21 46  1  0  0  0
 21 47  1  0  0  0
 22 48  1  0  0  0
 26 49  1  0  0  0
 26 50  1  0  0  0
 26 51  1  0  0  0
M  END
$$$$
