4m5j_ligand
  -I-interpret- 

 35 37  0  0  0  0  0  0  0  0999 V2000
   57.2800   10.6100   32.8290 C   0  0  0  0  0
   57.8170    9.6450   33.6590 O   0  0  0  0  0
   58.9240   12.4350   33.4120 N   0  0  0  0  0
   60.1380   14.8620   33.4390 S   0  0  0  0  0
   56.6000   19.1160   34.1060 C   0  0  0  0  0
   55.2550   18.9480   34.3300 C   0  0  0  0  0
   54.7520   17.6460   34.7910 C   0  0  0  0  0
   55.6190   16.6140   34.9990 C   0  0  0  0  0
   54.1050   20.8990   35.1520 C   0  0  0  0  0
   57.9130   13.9690   32.0090 N   0  0  0  0  0
   57.8220   11.8880   32.7610 C   0  0  0  0  0
   57.3460   14.5410   35.3820 O   0  0  0  0  0
   56.0770   12.5950   31.1480 N   0  0  0  0  0
   58.9380   13.6870   32.9260 C   0  0  0  0  0
   54.3530   19.9820   34.1350 O   0  0  0  0  0
   57.1870   12.7870   31.9280 C   0  0  0  0  0
   56.1680   10.3140   32.0970 N   0  0  0  0  0
   55.5580   11.3200   31.2570 C   0  0  0  0  0
   54.4050   10.9710   30.5080 N   0  0  0  0  0
   59.4540   15.4690   34.9850 C   0  0  0  0  0
   57.9390   15.5490   35.0370 C   0  0  0  0  0
   57.0980   16.7710   34.7580 C   0  0  0  0  0
   57.5560   17.9720   34.3370 C   0  0  0  0  0
   56.9774   20.0784   33.7605 H   0  0  0  0  0
   53.6855   17.5053   34.9667 H   0  0  0  0  0
   55.2339   15.6555   35.3469 H   0  0  0  0  0
   53.7165   20.3749   36.0252 H   0  0  0  0  0
   55.0324   21.4078   35.4148 H   0  0  0  0  0
   53.3725   21.6300   34.8097 H   0  0  0  0  0
   55.7648    9.3782   32.1425 H   0  0  0  0  0
   53.9669   11.6593   29.8958 H   0  0  0  0  0
   54.0140   10.0318   30.5816 H   0  0  0  0  0
   59.8248   16.4861   35.1123 H   0  0  0  0  0
   59.7560   14.7628   35.7585 H   0  0  0  0  0
   58.6227   18.1142   34.1635 H   0  0  0  0  0
  1  2  2  0  0  0
 11  1  1  0  0  0
  1 17  1  0  0  0
  3 11  4  0  0  0
 14  3  4  0  0  0
  4 14  1  0  0  0
 20  4  1  0  0  0
  6  5  4  0  0  0
  5 23  4  0  0  0
  7  6  4  0  0  0
  6 15  1  0  0  0
  8  7  4  0  0  0
 22  8  4  0  0  0
 15  9  1  0  0  0
 14 10  4  0  0  0
 10 16  4  0  0  0
 16 11  4  0  0  0
 21 12  2  0  0  0
 16 13  1  0  0  0
 13 18  2  0  0  0
 18 17  1  0  0  0
 18 19  1  0  0  0
 21 20  1  0  0  0
 21 22  1  0  0  0
 22 23  4  0  0  0
  5 24  1  0  0  0
  7 25  1  0  0  0
  8 26  1  0  0  0
  9 27  1  0  0  0
  9 28  1  0  0  0
  9 29  1  0  0  0
 17 30  1  0  0  0
 19 31  1  0  0  0
 19 32  1  0  0  0
 20 33  1  0  0  0
 20 34  1  0  0  0
 23 35  1  0  0  0
M  END
$$$$
