4r3c_ligand
  -I-interpret- 

 53 57  0  0  0  0  0  0  0  0999 V2000
   68.4330   80.1880   25.9880 C   0  0  0  0  0
   67.9910   79.3120   24.8900 N   0  3  0  0  0
   67.1760   78.2600   25.5120 C   0  0  0  0  0
   66.4740   77.3430   24.5140 C   0  0  0  0  0
   66.1090   78.0090   23.2490 N   0  0  0  0  0
   66.7720   79.2270   22.7690 C   0  0  0  0  0
   67.1620   80.0820   23.9620 C   0  0  0  0  0
   65.1270   77.3960   22.4250 C   0  0  0  0  0
   64.6210   76.1110   22.6580 C   0  0  0  0  0
   63.6560   75.5680   21.8060 C   0  0  0  0  0
   63.2170   74.1800   22.1230 C   0  0  0  0  0
   63.2510   73.2000   21.1380 C   0  0  0  0  0
   62.8950   71.8960   21.4570 C   0  0  0  0  0
   62.5520   71.5710   22.7160 N   0  0  0  0  0
   62.5140   72.4970   23.6870 C   0  0  0  0  0
   62.8790   73.8110   23.4250 C   0  0  0  0  0
   63.2190   76.3050   20.6990 C   0  0  0  0  0
   63.7320   77.5180   20.4860 N   0  0  0  0  0
   64.6850   78.0470   21.3460 N   0  0  0  0  0
   62.2240   75.8170   19.7140 C   0  0  0  0  0
   62.6010   75.7750   18.3820 C   0  0  0  0  0
   61.7040   75.3340   17.4290 C   0  0  0  0  0
   62.0520   75.2630   16.0830 C   0  0  0  0  0
   61.1340   74.7900   15.1520 C   0  0  0  0  0
   59.8580   74.3820   15.5480 C   0  0  0  0  0
   59.4630   74.4400   16.8810 C   0  0  0  0  0
   60.3510   74.9000   17.8450 C   0  0  0  0  0
   60.0040   74.9670   19.1760 C   0  0  0  0  0
   60.9420   75.4260   20.1060 C   0  0  0  0  0
   69.0130   81.0157   25.5797 H   0  0  0  0  0
   67.5612   80.5779   26.5134 H   0  0  0  0  0
   69.0508   79.6166   26.6807 H   0  0  0  0  0
   68.7809   78.9225   24.3755 H   0  0  0  0  0
   66.4000   78.7559   26.0952 H   0  0  0  0  0
   67.8485   77.6384   26.1031 H   0  0  0  0  0
   65.5498   77.0016   24.9803 H   0  0  0  0  0
   67.1665   76.5375   24.2695 H   0  0  0  0  0
   66.0931   79.7847   22.1239 H   0  0  0  0  0
   67.6635   78.9604   22.2013 H   0  0  0  0  0
   67.7282   80.9448   23.6113 H   0  0  0  0  0
   66.2582   80.4064   24.4777 H   0  0  0  0  0
   64.9818   75.5318   23.5080 H   0  0  0  0  0
   63.5549   73.4531   20.1223 H   0  0  0  0  0
   62.8936   71.1304   20.6812 H   0  0  0  0  0
   62.1938   72.2151   24.6900 H   0  0  0  0  0
   62.9011   74.5468   24.2289 H   0  0  0  0  0
   63.6022   76.0889   18.0869 H   0  0  0  0  0
   63.0439   75.5781   15.7590 H   0  0  0  0  0
   61.4135   74.7369   14.0998 H   0  0  0  0  0
   59.1586   74.0112   14.7987 H   0  0  0  0  0
   58.4596   74.1254   17.1679 H   0  0  0  0  0
   59.0084   74.6653   19.5013 H   0  0  0  0  0
   60.6666   75.4797   21.1593 H   0  0  0  0  0
  1  2  1  0  0  0
  2  3  1  0  0  0
  2  7  1  0  0  0
  3  4  1  0  0  0
  4  5  1  0  0  0
  5  6  1  0  0  0
  5  8  1  0  0  0
  6  7  1  0  0  0
  8  9  4  0  0  0
  8 19  4  0  0  0
  9 10  4  0  0  0
 10 11  1  0  0  0
 10 17  4  0  0  0
 11 12  4  0  0  0
 11 16  4  0  0  0
 12 13  4  0  0  0
 13 14  4  0  0  0
 14 15  4  0  0  0
 15 16  4  0  0  0
 17 18  4  0  0  0
 17 20  1  0  0  0
 18 19  4  0  0  0
 20 21  4  0  0  0
 20 29  4  0  0  0
 21 22  4  0  0  0
 22 23  4  0  0  0
 22 27  4  0  0  0
 23 24  4  0  0  0
 24 25  4  0  0  0
 25 26  4  0  0  0
 26 27  4  0  0  0
 27 28  4  0  0  0
 28 29  4  0  0  0
  1 30  1  0  0  0
  1 31  1  0  0  0
  1 32  1  0  0  0
  2 33  1  0  0  0
  3 34  1  0  0  0
  3 35  1  0  0  0
  4 36  1  0  0  0
  4 37  1  0  0  0
  6 38  1  0  0  0
  6 39  1  0  0  0
  7 40  1  0  0  0
  7 41  1  0  0  0
  9 42  1  0  0  0
 12 43  1  0  0  0
 13 44  1  0  0  0
 15 45  1  0  0  0
 16 46  1  0  0  0
 21 47  1  0  0  0
 23 48  1  0  0  0
 24 49  1  0  0  0
 25 50  1  0  0  0
 26 51  1  0  0  0
 28 52  1  0  0  0
 29 53  1  0  0  0
M  END
$$$$
