5aqq_ligand
  -I-interpret- 

 21 22  0  0  0  0  0  0  0  0999 V2000
  326.4110    7.6160  252.0170 N   0  0  0  0  0
  327.1560    7.3360  253.0990 C   0  0  0  0  0
  327.2760    5.9810  253.5900 C   0  0  0  0  0
  326.6910    4.8170  253.0430 C   0  0  0  0  0
  327.7850    8.3670  253.7200 N   0  0  0  0  0
  328.5080    8.0660  254.8010 C   0  0  0  0  0
  328.7030    6.8900  255.3570 N   0  0  0  0  0
  328.0830    5.8350  254.7440 C   0  0  0  0  0
  328.2700    4.5480  255.2930 C   0  0  0  0  0
  327.6910    3.4330  254.7380 C   0  0  0  0  0
  327.9030    2.0640  255.3350 C   0  0  0  0  0
  326.9010    3.5940  253.6060 C   0  0  0  0  0
  325.9194    6.8675  251.5287 H   0  0  0  0  0
  326.3369    8.5771  251.6837 H   0  0  0  0  0
  326.0618    4.8986  252.1567 H   0  0  0  0  0
  329.0026    8.9066  255.2877 H   0  0  0  0  0
  328.8910    4.4360  256.1818 H   0  0  0  0  0
  328.9668    1.8264  255.3273 H   0  0  0  0  0
  327.5349    2.0555  256.3609 H   0  0  0  0  0
  327.3600    1.3244  254.7466 H   0  0  0  0  0
  326.4361    2.7170  253.1557 H   0  0  0  0  0
  1  2  1  0  0  0
  2  3  4  0  0  0
  2  5  4  0  0  0
  3  4  4  0  0  0
  3  8  4  0  0  0
  4 12  4  0  0  0
  5  6  4  0  0  0
  6  7  4  0  0  0
  7  8  4  0  0  0
  8  9  4  0  0  0
  9 10  4  0  0  0
 10 11  1  0  0  0
 10 12  4  0  0  0
  1 13  1  0  0  0
  1 14  1  0  0  0
  4 15  1  0  0  0
  6 16  1  0  0  0
  9 17  1  0  0  0
 11 18  1  0  0  0
 11 19  1  0  0  0
 11 20  1  0  0  0
 12 21  1  0  0  0
M  END
$$$$
