3skc_ligand
  -I-interpret- 

 46 49  0  0  0  0  0  0  0  0999 V2000
   13.6810  -26.7530   -2.0530 C   0  0  0  0  0
   12.8840  -27.9690   -2.3100 C   0  0  0  0  0
   13.2550  -25.6370   -2.3360 O   0  0  0  0  0
   12.5520  -28.2050   -3.6130 C   0  0  0  0  0
   11.8260  -29.3850   -3.9640 C   0  0  0  0  0
   11.4290  -30.3030   -2.9760 C   0  0  0  0  0
   11.7470  -30.0580   -1.6400 C   0  0  0  0  0
   12.4700  -28.9010   -1.2940 C   0  0  0  0  0
   12.7850  -28.6720   -0.0070 F   0  0  0  0  0
   12.9380  -27.3310   -4.5640 F   0  0  0  0  0
   11.5660  -29.5860   -5.2370 N   0  0  0  0  0
   14.8970  -27.0190   -1.5250 N   0  0  0  0  0
   15.9420  -26.1320   -1.1550 C   0  0  0  0  0
   15.7210  -24.7700   -0.8910 C   0  0  0  0  0
   16.8240  -24.0100   -0.5130 C   0  0  0  0  0
   18.0700  -24.6140   -0.4240 C   0  0  0  0  0
   18.3490  -25.9180   -0.6690 N   0  0  0  0  0
   17.2760  -26.6410   -1.0290 C   0  0  0  0  0
   17.0100  -22.7010   -0.1810 C   0  0  0  0  0
   18.2670  -22.4390    0.1120 N   0  0  0  0  0
   18.9000  -23.6400   -0.0450 N   0  0  0  0  0
   16.0720  -21.7360   -0.1330 O   0  0  0  0  0
   16.5120  -20.4370    0.2500 C   0  0  0  0  0
   10.8180  -30.8810   -5.9920 S   0  0  0  0  0
   12.2410  -31.8610   -6.3890 C   0  0  0  0  0
   12.9800  -31.5550   -7.5410 C   0  0  0  0  0
   14.1260  -32.3000   -7.8560 C   0  0  0  0  0
   14.5360  -33.3620   -7.0020 C   0  0  0  0  0
   13.7830  -33.6600   -5.8410 C   0  0  0  0  0
   12.6340  -32.9000   -5.5390 C   0  0  0  0  0
    9.9970  -31.5610   -4.9830 O   0  0  0  0  0
   10.2350  -30.3420   -7.2220 O   0  0  0  0  0
   10.8760  -31.2008   -3.2522 H   0  0  0  0  0
   11.4365  -30.7604   -0.8665 H   0  0  0  0  0
   11.8662  -28.8376   -5.8616 H   0  0  0  0  0
   15.0935  -28.0076   -1.3687 H   0  0  0  0  0
   14.7287  -24.3276   -0.9784 H   0  0  0  0  0
   17.4319  -27.6985   -1.2422 H   0  0  0  0  0
   16.9444  -20.4813    1.2496 H   0  0  0  0  0
   17.2636  -20.0862   -0.4572 H   0  0  0  0  0
   15.6636  -19.7527    0.2498 H   0  0  0  0  0
   12.6641  -30.7390   -8.1910 H   0  0  0  0  0
   14.7008  -32.0662   -8.7522 H   0  0  0  0  0
   15.4263  -33.9436   -7.2410 H   0  0  0  0  0
   14.0898  -34.4733   -5.1833 H   0  0  0  0  0
   12.0528  -33.1221   -4.6440 H   0  0  0  0  0
  1  2  1  0  0  0
  1  3  2  0  0  0
  1 12  1  0  0  0
  2  4  4  0  0  0
  2  8  4  0  0  0
  4  5  4  0  0  0
  4 10  1  0  0  0
  5  6  4  0  0  0
  5 11  1  0  0  0
  6  7  4  0  0  0
  7  8  4  0  0  0
  8  9  1  0  0  0
 11 24  1  0  0  0
 12 13  1  0  0  0
 13 14  4  0  0  0
 13 18  4  0  0  0
 14 15  4  0  0  0
 15 16  4  0  0  0
 15 19  4  0  0  0
 16 17  4  0  0  0
 16 21  4  0  0  0
 17 18  4  0  0  0
 19 20  4  0  0  0
 19 22  1  0  0  0
 20 21  4  0  0  0
 22 23  1  0  0  0
 24 25  1  0  0  0
 24 31  2  0  0  0
 24 32  2  0  0  0
 25 26  4  0  0  0
 25 30  4  0  0  0
 26 27  4  0  0  0
 27 28  4  0  0  0
 28 29  4  0  0  0
 29 30  4  0  0  0
  6 33  1  0  0  0
  7 34  1  0  0  0
 11 35  1  0  0  0
 12 36  1  0  0  0
 14 37  1  0  0  0
 18 38  1  0  0  0
 23 39  1  0  0  0
 23 40  1  0  0  0
 23 41  1  0  0  0
 26 42  1  0  0  0
 27 43  1  0  0  0
 28 44  1  0  0  0
 29 45  1  0  0  0
 30 46  1  0  0  0
M  END
$$$$
