2xjj_ligand
  -I-interpret- 

 43 46  0  0  0  0  0  0  0  0999 V2000
    1.6920   -1.4160   -3.0030 C   0  0  0  0  0
    1.8320    0.6310   -4.4200 C   0  0  0  0  0
    0.9010   -0.2450   -3.6030 C   0  0  0  0  0
    0.1700    0.5580   -2.5060 C   0  0  0  0  0
   -0.2540   -0.7900   -4.4180 C   0  0  0  0  0
   -0.2570   -1.4280   -5.6590 C   0  0  0  0  0
   -1.4500   -1.9410   -6.1920 C   0  0  0  0  0
   -1.4440   -2.5990   -7.5470 C   0  0  0  0  0
   -1.7630   -3.7830   -7.6510 O   0  0  0  0  0
   -1.1470   -1.8420   -8.6480 N   0  0  0  0  0
   -1.1020   -2.3880  -10.0230 C   0  0  0  0  0
   -1.3730   -1.1670  -10.8570 C   0  0  0  0  0
   -1.6260   -1.0550  -12.2170 C   0  0  0  0  0
   -1.8390    0.1920  -12.7830 C   0  0  0  0  0
   -1.8100    1.3300  -11.9910 C   0  0  0  0  0
   -1.5540    1.2280  -10.6340 C   0  0  0  0  0
   -1.3290   -0.0170  -10.0610 C   0  0  0  0  0
   -1.0330   -0.3760   -8.6290 C   0  0  0  0  0
   -2.6450   -1.8030   -5.4500 C   0  0  0  0  0
   -3.8150   -2.3140   -5.9390 O   0  0  0  0  0
   -2.6280   -1.1810   -4.1950 C   0  0  0  0  0
   -1.4320   -0.6870   -3.6900 C   0  0  0  0  0
   -1.1600   -0.0440   -2.4900 N   0  0  0  0  0
    1.0364   -2.0048   -2.3615 H   0  0  0  0  0
    2.0751   -2.0440   -3.8073 H   0  0  0  0  0
    2.5241   -1.0277   -2.4157 H   0  0  0  0  0
    2.2481    0.0489   -5.2423 H   0  0  0  0  0
    1.2746    1.4786   -4.8187 H   0  0  0  0  0
    2.6399    0.9927   -3.7839 H   0  0  0  0  0
    0.1469    1.6284   -2.7104 H   0  0  0  0  0
    0.6699    0.5041   -1.5389 H   0  0  0  0  0
    0.6732   -1.5287   -6.2182 H   0  0  0  0  0
   -1.8191   -3.1916  -10.1907 H   0  0  0  0  0
   -0.1553   -2.8718  -10.2632 H   0  0  0  0  0
   -1.6572   -1.9485  -12.8405 H   0  0  0  0  0
   -2.0297    0.2785  -13.8527 H   0  0  0  0  0
   -1.9893    2.3078  -12.4381 H   0  0  0  0  0
   -1.5291    2.1251  -10.0153 H   0  0  0  0  0
   -0.0587   -0.0244   -8.2896 H   0  0  0  0  0
   -1.7085    0.0991   -7.9176 H   0  0  0  0  0
   -4.5249   -2.1361   -5.3178 H   0  0  0  0  0
   -3.5479   -1.0852   -3.6181 H   0  0  0  0  0
   -1.8046    0.0018   -1.7009 H   0  0  0  0  0
  1  3  1  0  0  0
  3  2  1  0  0  0
  3  4  1  0  0  0
  3  5  1  0  0  0
  4 23  1  0  0  0
  5  6  4  0  0  0
  5 22  4  0  0  0
  6  7  4  0  0  0
  7  8  1  0  0  0
  7 19  4  0  0  0
  8  9  2  0  0  0
  8 10  1  0  0  0
 10 11  1  0  0  0
 10 18  1  0  0  0
 11 12  1  0  0  0
 12 13  4  0  0  0
 12 17  4  0  0  0
 13 14  4  0  0  0
 14 15  4  0  0  0
 15 16  4  0  0  0
 16 17  4  0  0  0
 17 18  1  0  0  0
 19 20  1  0  0  0
 19 21  4  0  0  0
 21 22  4  0  0  0
 22 23  1  0  0  0
  1 24  1  0  0  0
  1 25  1  0  0  0
  1 26  1  0  0  0
  2 27  1  0  0  0
  2 28  1  0  0  0
  2 29  1  0  0  0
  4 30  1  0  0  0
  4 31  1  0  0  0
  6 32  1  0  0  0
 11 33  1  0  0  0
 11 34  1  0  0  0
 13 35  1  0  0  0
 14 36  1  0  0  0
 15 37  1  0  0  0
 16 38  1  0  0  0
 18 39  1  0  0  0
 18 40  1  0  0  0
 20 41  1  0  0  0
 21 42  1  0  0  0
 23 43  1  0  0  0
M  END
$$$$
