5fov_ligand
  -I-interpret- 

 66 67  0  0  0  0  0  0  0  0999 V2000
   18.6290   -5.4090    1.4940 C   0  0  0  0  0
   19.7000   -4.8610    1.2120 O   0  0  0  0  0
   18.1300   -5.4870    2.9080 C   0  0  0  0  0
   17.8490   -5.9250    0.5430 N   0  0  0  0  0
   16.5680   -6.5590    0.8060 C   0  0  0  0  0
   16.7550   -8.0280    1.1710 C   0  0  0  0  0
   17.6220   -8.7010    0.6250 O   0  0  0  0  0
   15.6450   -6.4370   -0.4070 C   0  0  0  0  0
   15.1460   -5.0420   -0.6580 C   0  0  0  0  0
   15.9090   -4.1420   -1.3870 C   0  0  0  0  0
   13.9090   -4.6370   -0.1790 C   0  0  0  0  0
   15.4550   -2.8640   -1.6360 C   0  0  0  0  0
   13.4490   -3.3680   -0.4170 C   0  0  0  0  0
   14.2260   -2.4670   -1.1460 C   0  0  0  0  0
   15.9320   -8.5160    2.0920 N   0  0  0  0  0
   16.0090   -9.9080    2.5370 C   0  0  0  0  0
   14.6540  -10.5910    2.4790 C   0  0  0  0  0
   13.6300   -9.9870    2.7900 O   0  0  0  0  0
   16.5530   -9.9840    3.9610 C   0  0  0  0  0
   17.9890   -9.5760    4.0820 C   0  0  0  0  0
   18.3800   -8.3870    4.6600 N   0  0  0  0  0
   19.1270  -10.1990    3.6950 C   0  0  0  0  0
   19.6980   -8.2970    4.6280 C   0  0  0  0  0
   20.1750   -9.3820    4.0460 N   0  0  0  0  0
   14.6560  -11.8640    2.0930 N   0  0  0  0  0
   13.4330  -12.6520    2.0200 C   0  0  0  0  0
   12.7410  -12.7240    3.3710 C   0  0  0  0  0
   13.3960  -12.8780    4.4000 O   0  0  0  0  0
   13.7360  -14.0770    1.5230 C   0  0  0  0  0
   14.3770  -14.0010    0.2450 O   0  0  0  0  0
   12.4720  -14.8850    1.3930 C   0  0  0  0  0
   11.4200  -12.5510    3.3710 N   0  0  0  0  0
   10.6060  -12.7690    4.5550 C   0  0  0  0  0
   10.8540  -11.8730    5.7550 C   0  0  0  0  0
    9.9850  -11.7360    6.6120 O   0  0  0  0  0
   12.0400  -11.2730    5.8290 N   0  0  0  0  0
   18.8527   -6.0294    3.5176 H   0  0  0  0  0
   18.0031   -4.4792    3.3033 H   0  0  0  0  0
   17.1732   -6.0089    2.9260 H   0  0  0  0  0
   18.1698   -5.8716   -0.4238 H   0  0  0  0  0
   16.1080   -6.0454    1.6502 H   0  0  0  0  0
   14.7733   -7.0622   -0.2139 H   0  0  0  0  0
   16.2208   -6.7367   -1.2827 H   0  0  0  0  0
   16.8824   -4.4496   -1.7689 H   0  0  0  0  0
   13.2967   -5.3347    0.3923 H   0  0  0  0  0
   16.0630   -2.1703   -2.2167 H   0  0  0  0  0
   12.4746   -3.0621   -0.0362 H   0  0  0  0  0
   13.8649   -1.4548   -1.3280 H   0  0  0  0  0
   15.2263   -7.9033    2.5007 H   0  0  0  0  0
   16.6855  -10.4271    1.8580 H   0  0  0  0  0
   16.4824  -11.0236    4.2809 H   0  0  0  0  0
   15.9671   -9.2956    4.5700 H   0  0  0  0  0
   19.1986  -11.1667    3.1984 H   0  0  0  0  0
   20.2904   -7.4683    5.0159 H   0  0  0  0  0
   15.5417  -12.3021    1.8402 H   0  0  0  0  0
   12.7670  -12.1566    1.3136 H   0  0  0  0  0
   14.3866  -14.5658    2.2482 H   0  0  0  0  0
   14.5680  -14.8878   -0.0692 H   0  0  0  0  0
   11.9825  -14.9504    2.3647 H   0  0  0  0  0
   11.8044  -14.4007    0.6803 H   0  0  0  0  0
   12.7173  -15.8867    1.0402 H   0  0  0  0  0
   10.9633  -12.2547    2.5084 H   0  0  0  0  0
   10.8428  -13.7787    4.8904 H   0  0  0  0  0
    9.5806  -12.5662    4.2459 H   0  0  0  0  0
   12.2577  -10.6696    6.6221 H   0  0  0  0  0
   12.7311  -11.4166    5.0926 H   0  0  0  0  0
  1  2  2  0  0  0
  1  3  1  0  0  0
  1  4  1  0  0  0
  4  5  1  0  0  0
  5  6  1  0  0  0
  5  8  1  0  0  0
  6  7  2  0  0  0
  6 15  1  0  0  0
  8  9  1  0  0  0
  9 10  4  0  0  0
  9 11  4  0  0  0
 10 12  4  0  0  0
 11 13  4  0  0  0
 12 14  4  0  0  0
 13 14  4  0  0  0
 15 16  1  0  0  0
 16 17  1  0  0  0
 16 19  1  0  0  0
 17 18  2  0  0  0
 17 25  1  0  0  0
 19 20  1  0  0  0
 20 21  4  0  0  0
 20 22  4  0  0  0
 21 23  4  0  0  0
 22 24  4  0  0  0
 23 24  4  0  0  0
 25 26  1  0  0  0
 26 27  1  0  0  0
 26 29  1  0  0  0
 27 28  2  0  0  0
 27 32  1  0  0  0
 29 30  1  0  0  0
 29 31  1  0  0  0
 32 33  1  0  0  0
 33 34  1  0  0  0
 34 35  2  0  0  0
 34 36  1  0  0  0
  3 37  1  0  0  0
  3 38  1  0  0  0
  3 39  1  0  0  0
  4 40  1  0  0  0
  5 41  1  0  0  0
  8 42  1  0  0  0
  8 43  1  0  0  0
 10 44  1  0  0  0
 11 45  1  0  0  0
 12 46  1  0  0  0
 13 47  1  0  0  0
 14 48  1  0  0  0
 15 49  1  0  0  0
 16 50  1  0  0  0
 19 51  1  0  0  0
 19 52  1  0  0  0
 22 53  1  0  0  0
 23 54  1  0  0  0
 25 55  1  0  0  0
 26 56  1  0  0  0
 29 57  1  0  0  0
 30 58  1  0  0  0
 31 59  1  0  0  0
 31 60  1  0  0  0
 31 61  1  0  0  0
 32 62  1  0  0  0
 33 63  1  0  0  0
 33 64  1  0  0  0
 36 65  1  0  0  0
 36 66  1  0  0  0
M  END
$$$$
