2rkg_ligand
  -I-interpret- 

 94 97  0  0  0  0  0  0  0  0999 V2000
  -12.5830   12.3050    6.9680 C   0  0  0  0  0
  -10.4740   13.0480    5.7760 C   0  0  0  0  0
  -11.2370   14.2330    5.3870 N   0  0  0  0  0
  -12.5030   14.4660    5.7490 C   0  0  0  0  0
  -13.1700   13.4740    6.3330 N   0  0  0  0  0
   -6.4060   17.5750   -0.2120 C   0  0  0  0  0
   -5.7590   18.6000   -0.9040 C   0  0  0  0  0
   -4.4720   18.4050   -1.4090 C   0  0  0  0  0
   -3.8230   17.1840   -1.2160 C   0  0  0  0  0
   -4.4690   16.1610   -0.5140 C   0  0  0  0  0
   -5.7590   16.3530   -0.0170 C   0  0  0  0  0
  -13.0410   15.5350    5.5690 O   0  0  0  0  0
  -10.4930   15.1880    4.5370 C   0  0  0  0  0
  -10.3650   14.6780    3.1150 C   0  0  0  0  0
  -11.2610   15.2040    2.2700 N   0  0  0  0  0
  -11.3180   14.8460    0.8530 C   0  0  0  0  0
   -9.1480   15.5640    5.1980 C   0  0  0  0  0
   -8.3050   16.4700    4.3100 C   0  0  0  0  0
   -9.3270   16.2580    6.5470 C   0  0  0  0  0
   -9.5120   13.8520    2.7810 O   0  0  0  0  0
  -12.4550   10.6580    1.9210 C   0  0  0  0  0
  -13.4870   10.6420    2.8580 C   0  0  0  0  0
  -14.2560   11.7860    3.0630 C   0  0  0  0  0
  -13.9910   12.9400    2.3270 C   0  0  0  0  0
  -12.9520   12.9620    1.3980 C   0  0  0  0  0
  -12.1910   11.8140    1.1890 C   0  0  0  0  0
  -12.6950   14.2280    0.6130 C   0  0  0  0  0
  -11.3160   16.1540    0.0660 C   0  0  0  0  0
  -10.2000   17.1290    0.4250 C   0  0  0  0  0
   -8.7910   16.6940    0.0160 C   0  0  0  0  0
   -8.7390   16.5540   -1.4340 N   0  0  0  0  0
   -8.5640   15.3460   -1.9710 C   0  0  0  0  0
   -8.4930   15.2230   -3.4750 C   0  0  0  0  0
   -8.6070   16.4800   -4.1480 O   0  0  0  0  0
   -8.0950   16.6300   -5.4150 C   0  0  0  0  0
  -10.4980   18.3790   -0.1920 O   0  0  0  0  0
   -7.8040   17.8190    0.3280 C   0  0  0  0  0
   -8.4640   14.3320   -1.2980 O   0  0  0  0  0
   -8.7070   16.0230   -6.5230 C   0  0  0  0  0
   -8.1660   16.1920   -7.7940 C   0  0  0  0  0
   -7.0230   16.9640   -7.9790 C   0  0  0  0  0
   -6.4120   17.5670   -6.8840 C   0  0  0  0  0
   -6.9410   17.4030   -5.6060 C   0  0  0  0  0
   -6.2400   18.0820   -4.4580 C   0  0  0  0  0
   -9.9530   15.1820   -6.4010 C   0  0  0  0  0
  -11.4580   11.9060    6.0230 C   0  0  0  0  0
  -13.3073   11.5035    7.1132 H   0  0  0  0  0
  -12.2241   12.5158    7.9754 H   0  0  0  0  0
   -9.9016   13.2515    6.6810 H   0  0  0  0  0
   -9.7754   12.7759    4.9847 H   0  0  0  0  0
  -14.1879   13.5396    6.3355 H   0  0  0  0  0
   -6.2605   19.5566   -1.0508 H   0  0  0  0  0
   -3.9736   19.2065   -1.9543 H   0  0  0  0  0
   -2.8187   17.0288   -1.6101 H   0  0  0  0  0
   -3.9624   15.2092   -0.3543 H   0  0  0  0  0
   -6.2609   15.5500    0.5228 H   0  0  0  0  0
  -11.0603   16.1152    4.4560 H   0  0  0  0  0
  -11.9319   15.8829    2.6297 H   0  0  0  0  0
  -10.4998   14.1832    0.5714 H   0  0  0  0  0
   -8.6359   14.6137    5.3486 H   0  0  0  0  0
   -8.0909   15.9593    3.3712 H   0  0  0  0  0
   -8.8530   17.3903    4.1077 H   0  0  0  0  0
   -7.3700   16.7065    4.8179 H   0  0  0  0  0
   -9.8996   17.1752    6.4092 H   0  0  0  0  0
   -9.8600   15.5942    7.2277 H   0  0  0  0  0
   -8.3487   16.4981    6.9633 H   0  0  0  0  0
  -11.8528    9.7637    1.7605 H   0  0  0  0  0
  -13.6921    9.7366    3.4292 H   0  0  0  0  0
  -15.0622   11.7786    3.7965 H   0  0  0  0  0
  -14.6003   13.8309    2.4790 H   0  0  0  0  0
  -11.3880   11.8200    0.4519 H   0  0  0  0  0
  -12.7506   13.9676   -0.4440 H   0  0  0  0  0
  -13.4362   14.9605    0.9328 H   0  0  0  0  0
  -12.2555   16.6572    0.2947 H   0  0  0  0  0
  -11.1729   15.8878   -0.9813 H   0  0  0  0  0
  -10.1765   17.1834    1.5134 H   0  0  0  0  0
   -8.5513   15.7688    0.5400 H   0  0  0  0  0
   -8.8357   17.3737   -2.0333 H   0  0  0  0  0
   -9.3275   14.5993   -3.7956 H   0  0  0  0  0
   -7.5204   14.8001   -3.7267 H   0  0  0  0  0
   -9.8078   19.0117    0.0198 H   0  0  0  0  0
   -8.1824   18.7243   -0.1467 H   0  0  0  0  0
   -7.7255   17.8910    1.4128 H   0  0  0  0  0
   -8.6414   15.7158   -8.6516 H   0  0  0  0  0
   -6.6079   17.0958   -8.9782 H   0  0  0  0  0
   -5.5155   18.1703   -7.0269 H   0  0  0  0  0
   -6.9257   18.7791   -3.9764 H   0  0  0  0  0
   -5.9165   17.3317   -3.7366 H   0  0  0  0  0
   -5.3725   18.6247   -4.8335 H   0  0  0  0  0
   -9.7554   14.3353   -5.7436 H   0  0  0  0  0
  -10.7586   15.7867   -5.9846 H   0  0  0  0  0
  -10.2423   14.8183   -7.3870 H   0  0  0  0  0
  -11.9022   11.6302    5.0666 H   0  0  0  0  0
  -10.9105   11.0812    6.4791 H   0  0  0  0  0
  5  1  1  0  0  0
 46  1  1  0  0  0
  3  2  1  0  0  0
  2 46  1  0  0  0
  3  4  1  0  0  0
 13  3  1  0  0  0
  4  5  1  0  0  0
  4 12  2  0  0  0
  6  7  4  0  0  0
  6 11  4  0  0  0
 37  6  1  0  0  0
  7  8  4  0  0  0
  8  9  4  0  0  0
 10  9  4  0  0  0
 11 10  4  0  0  0
 14 13  1  0  0  0
 13 17  1  0  0  0
 15 14  1  0  0  0
 14 20  2  0  0  0
 16 15  1  0  0  0
 16 27  1  0  0  0
 28 16  1  0  0  0
 17 18  1  0  0  0
 17 19  1  0  0  0
 21 22  4  0  0  0
 26 21  4  0  0  0
 23 22  4  0  0  0
 24 23  4  0  0  0
 25 24  4  0  0  0
 25 26  4  0  0  0
 27 25  1  0  0  0
 29 28  1  0  0  0
 30 29  1  0  0  0
 29 36  1  0  0  0
 30 31  1  0  0  0
 30 37  1  0  0  0
 31 32  1  0  0  0
 32 33  1  0  0  0
 32 38  2  0  0  0
 33 34  1  0  0  0
 34 35  1  0  0  0
 35 39  4  0  0  0
 35 43  4  0  0  0
 39 40  4  0  0  0
 39 45  1  0  0  0
 40 41  4  0  0  0
 41 42  4  0  0  0
 42 43  4  0  0  0
 43 44  1  0  0  0
  1 47  1  0  0  0
  1 48  1  0  0  0
  2 49  1  0  0  0
  2 50  1  0  0  0
  5 51  1  0  0  0
  7 52  1  0  0  0
  8 53  1  0  0  0
  9 54  1  0  0  0
 10 55  1  0  0  0
 11 56  1  0  0  0
 13 57  1  0  0  0
 15 58  1  0  0  0
 16 59  1  0  0  0
 17 60  1  0  0  0
 18 61  1  0  0  0
 18 62  1  0  0  0
 18 63  1  0  0  0
 19 64  1  0  0  0
 19 65  1  0  0  0
 19 66  1  0  0  0
 21 67  1  0  0  0
 22 68  1  0  0  0
 23 69  1  0  0  0
 24 70  1  0  0  0
 26 71  1  0  0  0
 27 72  1  0  0  0
 27 73  1  0  0  0
 28 74  1  0  0  0
 28 75  1  0  0  0
 29 76  1  0  0  0
 30 77  1  0  0  0
 31 78  1  0  0  0
 33 79  1  0  0  0
 33 80  1  0  0  0
 36 81  1  0  0  0
 37 82  1  0  0  0
 37 83  1  0  0  0
 40 84  1  0  0  0
 41 85  1  0  0  0
 42 86  1  0  0  0
 44 87  1  0  0  0
 44 88  1  0  0  0
 44 89  1  0  0  0
 45 90  1  0  0  0
 45 91  1  0  0  0
 45 92  1  0  0  0
 46 93  1  0  0  0
 46 94  1  0  0  0
M  END
$$$$
