2r0y_ligand
  -I-interpret- 

 30 29  0  0  0  0  0  0  0  0999 V2000
   26.2960   11.9560    6.4600 O   0  0  0  0  0
   27.4360   11.6540    6.1390 C   0  0  0  0  0
   28.5950   11.6290    7.1160 C   0  0  0  0  0
   27.7610   11.3040    4.8890 N   0  0  0  0  0
   26.7950   11.2740    3.8070 C   0  0  0  0  0
   26.5070    9.8290    3.4250 C   0  0  0  0  0
   26.9600    9.5410    2.0000 C   0  0  0  0  0
   25.8630    9.9310    1.0050 C   0  0  0  0  0
   24.5220    9.1960    1.1880 C   0  0  0  0  0
   24.6320    7.7830    0.7160 N   0  3  0  0  0
   23.3820    9.8840    0.4750 C   0  0  0  0  0
   23.5538   10.5415   -0.5860 O   0  0  0  0  0
   22.2211    9.7976    0.9570 O   0  0  0  0  0
   28.7301   12.6227    7.5430 H   0  0  0  0  0
   28.3819   10.9159    7.9123 H   0  0  0  0  0
   29.5033   11.3305    6.5926 H   0  0  0  0  0
   28.7277   11.0477    4.6886 H   0  0  0  0  0
   27.1984   11.8046    2.9446 H   0  0  0  0  0
   25.8721   11.7556    4.1301 H   0  0  0  0  0
   25.4328    9.6569    3.4921 H   0  0  0  0  0
   27.0507    9.1725    4.1043 H   0  0  0  0  0
   27.1681    8.4756    1.9010 H   0  0  0  0  0
   27.8569   10.1226    1.7871 H   0  0  0  0  0
   26.2315    9.6684    0.0134 H   0  0  0  0  0
   25.6628   10.9913    1.1590 H   0  0  0  0  0
   24.2990    9.2115    2.2548 H   0  0  0  0  0
   23.7363    7.3122    0.8445 H   0  0  0  0  0
   24.8832    7.7746   -0.2726 H   0  0  0  0  0
   25.3513    7.3008    1.2549 H   0  0  0  0  0
   24.4822   10.5178   -0.8290 H   0  0  0  0  0
  1  2  2  0  0  0
  2  3  1  0  0  0
  2  4  1  0  0  0
  4  5  1  0  0  0
  5  6  1  0  0  0
  6  7  1  0  0  0
  7  8  1  0  0  0
  8  9  1  0  0  0
  9 10  1  0  0  0
  9 11  1  0  0  0
 11 12  1  0  0  0
 11 13  2  0  0  0
  3 14  1  0  0  0
  3 15  1  0  0  0
  3 16  1  0  0  0
  4 17  1  0  0  0
  5 18  1  0  0  0
  5 19  1  0  0  0
  6 20  1  0  0  0
  6 21  1  0  0  0
  7 22  1  0  0  0
  7 23  1  0  0  0
  8 24  1  0  0  0
  8 25  1  0  0  0
  9 26  1  0  0  0
 10 27  1  0  0  0
 10 28  1  0  0  0
 10 29  1  0  0  0
 12 30  1  0  0  0
M  END
$$$$
