### 
### Created by X-TOOL on Mon Sep 10 21:12:51 2018
### 

@<TRIPOS>MOLECULE
1u9l_ligand
  123   123     1     0     0
SMALL
GAST_HUCK


@<TRIPOS>ATOM
      1 N          37.5600   58.9670   11.1710 N.4       1 ASN         0.2396
      2 CA         38.5700   57.8780   11.2930 C.3       1 ASN         0.0818
      3 C          39.7830   58.3800   12.0670 C.2       1 ASN         0.2291
      4 O          40.2610   59.4900   11.8370 O.2       1 ASN        -0.3905
      5 CB         39.0250   57.4080    9.9070 C.3       1 ASN         0.0972
      6 CG         37.8630   57.0430    8.9930 C.2       1 ASN         0.1813
      7 OD1        38.0680   56.5310    7.8930 O.2       1 ASN        -0.3969
      8 ND2        36.6400   57.3120    9.4420 N.am      1 ASN        -0.3006
      9 N          40.2830   57.5600   12.9850 N.am      1 ARG        -0.2609
     10 CA         41.4480   57.9470   13.7660 C.3       1 ARG         0.1314
     11 C          42.6750   57.8450   12.8710 C.2       1 ARG         0.2064
     12 O          42.6820   57.0980   11.8950 O.2       1 ARG        -0.3942
     13 CB         41.6060   57.0290   14.9780 C.3       1 ARG        -0.0092
     14 CG         41.8010   55.5800   14.6170 C.3       1 ARG        -0.0156
     15 CD         41.7930   54.6930   15.8500 C.3       1 ARG         0.0627
     16 NE         41.9470   53.2890   15.4820 N.pl3     1 ARG        -0.2723
     17 CZ         41.9740   52.2820   16.3480 C.cat     1 ARG         0.2882
     18 NH1        42.1180   51.0390   15.9090 N.pl3     1 ARG        -0.2849
     19 NH2        41.8590   52.5170   17.6470 N.pl3     1 ARG        -0.2849
     20 N          43.7310   58.6030   13.1860 N.am      1 PRO        -0.2498
     21 CA         44.9410   58.5480   12.3620 C.3       1 PRO         0.1338
     22 C          45.6750   57.2090   12.4100 C.2       1 PRO         0.2041
     23 O          45.6780   56.5180   13.4330 O.2       1 PRO        -0.3944
     24 CB         45.7900   59.6950   12.9130 C.3       1 PRO        -0.0104
     25 CG         45.3660   59.7740   14.3480 C.3       1 PRO        -0.0281
     26 CD         43.8680   59.5910   14.2700 C.3       1 PRO         0.0369
     27 N          46.2820   56.8500   11.2820 N.am      1 ILE        -0.2635
     28 CA         47.0550   55.6220   11.1530 C.3       1 ILE         0.1335
     29 C          48.4830   56.0100   11.4920 C.2       1 ILE         0.2042
     30 O          49.1010   56.8110   10.7890 O.2       1 ILE        -0.3944
     31 CB         47.0060   55.0900    9.7140 C.3       1 ILE        -0.0037
     32 CG1        45.5570   54.7860    9.3320 C.3       1 ILE        -0.0491
     33 CG2        47.8850   53.8550    9.5880 C.3       1 ILE        -0.0582
     34 CD1        45.3690   54.4520    7.8700 C.3       1 ILE        -0.0648
     35 N          49.0090   55.4330   12.5650 N.am      1 LEU        -0.2637
     36 CA         50.3480   55.7730   13.0210 C.3       1 LEU         0.1312
     37 C          51.5060   54.9600   12.4540 C.2       1 LEU         0.2040
     38 O          51.4730   53.7300   12.4350 O.2       1 LEU        -0.3944
     39 CB         50.3900   55.7050   14.5450 C.3       1 LEU        -0.0101
     40 CG         49.3100   56.5070   15.2740 C.3       1 LEU        -0.0425
     41 CD1        49.4320   56.2700   16.7740 C.3       1 LEU        -0.0625
     42 CD2        49.4540   57.9920   14.9470 C.3       1 LEU        -0.0625
     43 N          52.5290   55.6720   11.9900 N.am      1 SER        -0.2616
     44 CA         53.7380   55.0520   11.4620 C.3       1 SER         0.1539
     45 C          54.7840   55.2570   12.5530 C.2       1 SER         0.2056
     46 O          54.5570   56.0280   13.4860 O.2       1 SER        -0.3943
     47 CB         54.1950   55.7450   10.1730 C.3       1 SER         0.0843
     48 OG         53.2670   55.5540    9.1180 O.3       1 SER        -0.3903
     49 N          55.9190   54.5740   12.4440 N.am      1 LEU        -0.2694
     50 CA         56.9760   54.7070   13.4390 C.3       1 LEU         0.0946
     51 C          58.2780   55.1670   12.7840 C.2       1 LEU         0.0601
     52 O          58.4110   54.9900   11.5530 O.co2     1 LEU        -0.5666
     53 CB         57.1890   53.3660   14.1480 C.3       1 LEU        -0.0156
     54 CG         58.1680   53.3030   15.3210 C.3       1 LEU        -0.0431
     55 CD1        57.6970   54.2130   16.4460 C.3       1 LEU        -0.0625
     56 CD2        58.2640   51.8710   15.8090 C.3       1 LEU        -0.0625
     57 OXT        59.1530   55.6890   13.5060 O.co2     1 LEU        -0.5666
     58 H1         36.7609   58.6282   10.6583 H         1 ASN         0.2017
     59 H2         37.9664   59.7489   10.6816 H         1 ASN         0.2017
     60 H3         37.2695   59.2604   12.0905 H         1 ASN         0.2017
     61 H4         38.1197   57.0312   11.8317 H         1 ASN         0.1125
     62 H5         39.6662   56.5227   10.0298 H         1 ASN         0.0585
     63 H6         39.6024   58.2163    9.4345 H         1 ASN         0.0585
     64 H7         35.8419   57.0922    8.8810 H         1 ASN         0.1814
     65 H8         36.5188   57.7340   10.3405 H         1 ASN         0.1814
     66 H9         39.8552   56.6696   13.1404 H         1 ARG         0.1885
     67 H10        41.3298   58.9843   14.1125 H         1 ARG         0.0800
     68 H11        40.7017   57.1138   15.5985 H         1 ARG         0.0313
     69 H12        42.4800   57.3638   15.5559 H         1 ARG         0.0313
     70 H13        42.7662   55.4668   14.1016 H         1 ARG         0.0301
     71 H14        40.9879   55.2663   13.9458 H         1 ARG         0.0301
     72 H15        40.8388   54.8235   16.3815 H         1 ARG         0.0689
     73 H16        42.6232   54.9856   16.5097 H         1 ARG         0.0689
     74 H17        42.0413   53.0633   14.4815 H         1 ARG         0.2642
     75 H18        42.1393   50.2559   16.5777 H         1 ARG         0.2615
     76 H19        42.2085   50.8567   14.8993 H         1 ARG         0.2615
     77 H20        41.7472   53.4825   17.9878 H         1 ARG         0.2615
     78 H21        41.8814   51.7341   18.3160 H         1 ARG         0.2615
     79 H22        44.6787   58.7478   11.3126 H         1 PRO         0.0802
     80 H23        45.5733   60.6354   12.3851 H         1 PRO         0.0313
     81 H24        46.8629   59.4669   12.8305 H         1 PRO         0.0313
     82 H25        45.6228   60.7511   14.7830 H         1 PRO         0.0287
     83 H26        45.8316   58.9742   14.9425 H         1 PRO         0.0287
     84 H27        43.4639   59.2030   15.2166 H         1 PRO         0.0524
     85 H28        43.3637   60.5349   14.0154 H         1 PRO         0.0524
     86 H29        46.2041   57.4506   10.4862 H         1 ILE         0.1883
     87 H30        46.6806   54.8550   11.8469 H         1 ILE         0.0803
     88 H31        47.3925   55.8641    9.0348 H         1 ILE         0.0345
     89 H32        44.9437   55.6682    9.5678 H         1 ILE         0.0267
     90 H33        45.2129   53.9296    9.9304 H         1 ILE         0.0267
     91 H34        48.9174   54.1095    9.8697 H         1 ILE         0.0235
     92 H35        47.8665   53.4963    8.5483 H         1 ILE         0.0235
     93 H36        47.5068   53.0662   10.2549 H         1 ILE         0.0235
     94 H37        44.3062   54.2467    7.6746 H         1 ILE         0.0230
     95 H38        45.9665   53.5638    7.6170 H         1 ILE         0.0230
     96 H39        45.6974   55.3024    7.2544 H         1 ILE         0.0230
     97 H40        48.4760   54.7531   13.0686 H         1 LEU         0.1883
     98 H41        50.5235   56.8166   12.7209 H         1 LEU         0.0800
     99 H42        51.3701   56.0813   14.8734 H         1 LEU         0.0315
    100 H43        50.2846   54.6504   14.8395 H         1 LEU         0.0315
    101 H44        48.3200   56.1647   14.9384 H         1 LEU         0.0298
    102 H45        48.6564   56.8457   17.3004 H         1 LEU         0.0232
    103 H46        50.4255   56.5944   17.1169 H         1 LEU         0.0232
    104 H47        49.3020   55.1988   16.9878 H         1 LEU         0.0232
    105 H48        49.3627   58.1387   13.8607 H         1 LEU         0.0232
    106 H49        50.4390   58.3477   15.2835 H         1 LEU         0.0232
    107 H50        48.6640   58.5590   15.4612 H         1 LEU         0.0232
    108 H51        52.4665   56.6700   12.0038 H         1 SER         0.1884
    109 H52        53.5738   53.9815   11.2695 H         1 SER         0.0823
    110 H53        55.1682   55.3306    9.8711 H         1 SER         0.0606
    111 H54        54.2992   56.8230   10.3654 H         1 SER         0.0606
    112 H55        52.4248   55.9142    9.3695 H         1 SER         0.2097
    113 H56        56.0500   53.9588   11.6666 H         1 LEU         0.1875
    114 H57        56.6704   55.4582   14.1822 H         1 LEU         0.0726
    115 H58        57.5450   52.6522   13.3905 H         1 LEU         0.0308
    116 H59        56.2088   53.0406   14.5266 H         1 LEU         0.0308
    117 H60        59.1601   53.6368   14.9828 H         1 LEU         0.0297
    118 H61        58.4085   54.1593   17.2832 H         1 LEU         0.0232
    119 H62        56.7031   53.8888   16.7881 H         1 LEU         0.0232
    120 H63        57.6391   55.2487   16.0800 H         1 LEU         0.0232
    121 H64        58.6052   51.2254   14.9863 H         1 LEU         0.0232
    122 H65        57.2753   51.5340   16.1537 H         1 LEU         0.0232
    123 H66        58.9813   51.8144   16.6410 H         1 LEU         0.0232
@<TRIPOS>BOND
     1    1    2 1  
     2    2    3 1  
     3    2    5 1  
     4    3    4 2  
     5    3    9 am 
     6    5    6 1  
     7    6    7 2  
     8    6    8 am 
     9    9   10 1  
    10   10   11 1  
    11   10   13 1  
    12   11   12 2  
    13   11   20 am 
    14   13   14 1  
    15   14   15 1  
    16   15   16 1  
    17   16   17 ar 
    18   17   18 ar 
    19   17   19 ar 
    20   20   21 1  
    21   20   26 1  
    22   21   22 1  
    23   21   24 1  
    24   22   23 2  
    25   22   27 am 
    26   24   25 1  
    27   25   26 1  
    28   27   28 1  
    29   28   29 1  
    30   28   31 1  
    31   29   30 2  
    32   29   35 am 
    33   31   32 1  
    34   31   33 1  
    35   32   34 1  
    36   35   36 1  
    37   36   37 1  
    38   36   39 1  
    39   37   38 2  
    40   37   43 am 
    41   39   40 1  
    42   40   41 1  
    43   40   42 1  
    44   43   44 1  
    45   44   45 1  
    46   44   47 1  
    47   45   46 2  
    48   45   49 am 
    49   47   48 1  
    50   49   50 1  
    51   50   51 1  
    52   50   53 1  
    53   51   52 ar 
    54   51   57 ar 
    55   53   54 1  
    56   54   55 1  
    57   54   56 1  
    58    1   58 1  
    59    1   59 1  
    60    1   60 1  
    61    2   61 1  
    62    5   62 1  
    63    5   63 1  
    64    8   64 1  
    65    8   65 1  
    66    9   66 1  
    67   10   67 1  
    68   13   68 1  
    69   13   69 1  
    70   14   70 1  
    71   14   71 1  
    72   15   72 1  
    73   15   73 1  
    74   16   74 1  
    75   18   75 1  
    76   18   76 1  
    77   19   77 1  
    78   19   78 1  
    79   21   79 1  
    80   24   80 1  
    81   24   81 1  
    82   25   82 1  
    83   25   83 1  
    84   26   84 1  
    85   26   85 1  
    86   27   86 1  
    87   28   87 1  
    88   31   88 1  
    89   32   89 1  
    90   32   90 1  
    91   33   91 1  
    92   33   92 1  
    93   33   93 1  
    94   34   94 1  
    95   34   95 1  
    96   34   96 1  
    97   35   97 1  
    98   36   98 1  
    99   39   99 1  
   100   39  100 1  
   101   40  101 1  
   102   41  102 1  
   103   41  103 1  
   104   41  104 1  
   105   42  105 1  
   106   42  106 1  
   107   42  107 1  
   108   43  108 1  
   109   44  109 1  
   110   47  110 1  
   111   47  111 1  
   112   48  112 1  
   113   49  113 1  
   114   50  114 1  
   115   53  115 1  
   116   53  116 1  
   117   54  117 1  
   118   55  118 1  
   119   55  119 1  
   120   55  120 1  
   121   56  121 1  
   122   56  122 1  
   123   56  123 1  
@<TRIPOS>SUBSTRUCTURE
     1 ASN         1

