1u9l_ligand
  -I-interpret- 

123123  0  0  0  0  0  0  0  0999 V2000
   37.5600   58.9670   11.1710 N   0  3  0  0  0
   38.5700   57.8780   11.2930 C   0  0  0  0  0
   39.7830   58.3800   12.0670 C   0  0  0  0  0
   40.2610   59.4900   11.8370 O   0  0  0  0  0
   39.0250   57.4080    9.9070 C   0  0  0  0  0
   37.8630   57.0430    8.9930 C   0  0  0  0  0
   38.0680   56.5310    7.8930 O   0  0  0  0  0
   36.6400   57.3120    9.4420 N   0  0  0  0  0
   40.2830   57.5600   12.9850 N   0  0  0  0  0
   41.4480   57.9470   13.7660 C   0  0  0  0  0
   42.6750   57.8450   12.8710 C   0  0  0  0  0
   42.6820   57.0980   11.8950 O   0  0  0  0  0
   41.6060   57.0290   14.9780 C   0  0  0  0  0
   41.8010   55.5800   14.6170 C   0  0  0  0  0
   41.7930   54.6930   15.8500 C   0  0  0  0  0
   41.9470   53.2890   15.4820 N   0  0  0  0  0
   41.9740   52.2820   16.3480 C   0  0  0  0  0
   42.1180   51.0390   15.9090 N   0  0  0  0  0
   41.8590   52.5170   17.6470 N   0  0  0  0  0
   43.7310   58.6030   13.1860 N   0  0  0  0  0
   44.9410   58.5480   12.3620 C   0  0  0  0  0
   45.6750   57.2090   12.4100 C   0  0  0  0  0
   45.6780   56.5180   13.4330 O   0  0  0  0  0
   45.7900   59.6950   12.9130 C   0  0  0  0  0
   45.3660   59.7740   14.3480 C   0  0  0  0  0
   43.8680   59.5910   14.2700 C   0  0  0  0  0
   46.2820   56.8500   11.2820 N   0  0  0  0  0
   47.0550   55.6220   11.1530 C   0  0  0  0  0
   48.4830   56.0100   11.4920 C   0  0  0  0  0
   49.1010   56.8110   10.7890 O   0  0  0  0  0
   47.0060   55.0900    9.7140 C   0  0  0  0  0
   45.5570   54.7860    9.3320 C   0  0  0  0  0
   47.8850   53.8550    9.5880 C   0  0  0  0  0
   45.3690   54.4520    7.8700 C   0  0  0  0  0
   49.0090   55.4330   12.5650 N   0  0  0  0  0
   50.3480   55.7730   13.0210 C   0  0  0  0  0
   51.5060   54.9600   12.4540 C   0  0  0  0  0
   51.4730   53.7300   12.4350 O   0  0  0  0  0
   50.3900   55.7050   14.5450 C   0  0  0  0  0
   49.3100   56.5070   15.2740 C   0  0  0  0  0
   49.4320   56.2700   16.7740 C   0  0  0  0  0
   49.4540   57.9920   14.9470 C   0  0  0  0  0
   52.5290   55.6720   11.9900 N   0  0  0  0  0
   53.7380   55.0520   11.4620 C   0  0  0  0  0
   54.7840   55.2570   12.5530 C   0  0  0  0  0
   54.5570   56.0280   13.4860 O   0  0  0  0  0
   54.1950   55.7450   10.1730 C   0  0  0  0  0
   53.2670   55.5540    9.1180 O   0  0  0  0  0
   55.9190   54.5740   12.4440 N   0  0  0  0  0
   56.9760   54.7070   13.4390 C   0  0  0  0  0
   58.2780   55.1670   12.7840 C   0  0  0  0  0
   58.4110   54.9900   11.5530 O   0  0  0  0  0
   57.1890   53.3660   14.1480 C   0  0  0  0  0
   58.1680   53.3030   15.3210 C   0  0  0  0  0
   57.6970   54.2130   16.4460 C   0  0  0  0  0
   58.2640   51.8710   15.8090 C   0  0  0  0  0
   59.1530   55.6890   13.5060 O   0  0  0  0  0
   37.2699   59.2659   12.1021 H   0  0  0  0  0
   37.9710   59.7559   10.6720 H   0  0  0  0  0
   36.7502   58.6219   10.6558 H   0  0  0  0  0
   38.1103   57.0436   11.8227 H   0  0  0  0  0
   39.6349   56.5148   10.0423 H   0  0  0  0  0
   39.5704   58.2282    9.4402 H   0  0  0  0  0
   35.8262   57.0931    8.8674 H   0  0  0  0  0
   36.5161   57.7372   10.3608 H   0  0  0  0  0
   39.8466   56.6518   13.1436 H   0  0  0  0  0
   41.3291   58.9679   14.1289 H   0  0  0  0  0
   40.6886   57.0992   15.5624 H   0  0  0  0  0
   42.4950   57.3530   15.5192 H   0  0  0  0  0
   42.7664   55.4745   14.1221 H   0  0  0  0  0
   40.9825   55.2733   13.9658 H   0  0  0  0  0
   40.8409   54.8180   16.3658 H   0  0  0  0  0
   42.6243   54.9800   16.4939 H   0  0  0  0  0
   42.0404   53.0655   14.4912 H   0  0  0  0  0
   42.1403   50.2636   16.5713 H   0  0  0  0  0
   42.2065   50.8583   14.9090 H   0  0  0  0  0
   41.7494   53.4733   17.9845 H   0  0  0  0  0
   44.7082   58.6470   11.3018 H   0  0  0  0  0
   45.6337   60.6304   12.3757 H   0  0  0  0  0
   46.8597   59.5195   12.7991 H   0  0  0  0  0
   45.6529   60.7125   14.8223 H   0  0  0  0  0
   45.8512   59.0250   14.9738 H   0  0  0  0  0
   43.4257   59.2616   15.2102 H   0  0  0  0  0
   43.3311   60.5195   14.0756 H   0  0  0  0  0
   46.2025   57.4626   10.4703 H   0  0  0  0  0
   46.6620   54.8404   11.8032 H   0  0  0  0  0
   47.3897   55.8443    9.0271 H   0  0  0  0  0
   44.9715   55.6818    9.5387 H   0  0  0  0  0
   45.2451   53.9143    9.9073 H   0  0  0  0  0
   48.9129   54.1149    9.8409 H   0  0  0  0  0
   47.5257   53.0838   10.2694 H   0  0  0  0  0
   47.8441   53.4845    8.5637 H   0  0  0  0  0
   45.6948   55.2954    7.2611 H   0  0  0  0  0
   45.9616   53.5718    7.6206 H   0  0  0  0  0
   44.3155   54.2488    7.6776 H   0  0  0  0  0
   48.4654   54.7395   13.0787 H   0  0  0  0  0
   50.5129   56.7782   12.6331 H   0  0  0  0  0
   51.3472   56.1300   14.8470 H   0  0  0  0  0
   50.2322   54.6601   14.8122 H   0  0  0  0  0
   48.3240   56.1793   14.9446 H   0  0  0  0  0
   49.3031   55.2083   16.9845 H   0  0  0  0  0
   50.4169   56.5918   17.1125 H   0  0  0  0  0
   48.6630   56.8409   17.2945 H   0  0  0  0  0
   50.4368   58.3393   15.2658 H   0  0  0  0  0
   49.3467   58.1381   13.8722 H   0  0  0  0  0
   48.6810   58.5546   15.4704 H   0  0  0  0  0
   52.4652   56.6899   12.0041 H   0  0  0  0  0
   53.5777   54.0022   11.2163 H   0  0  0  0  0
   55.1505   55.3154    9.8721 H   0  0  0  0  0
   54.2777   56.8141   10.3685 H   0  0  0  0  0
   53.5845   56.0000    8.3294 H   0  0  0  0  0
   56.0526   53.9465   11.6511 H   0  0  0  0  0
   56.6762   55.4578   14.1701 H   0  0  0  0  0
   57.6190   54.5755   11.2030 H   0  0  0  0  0
   57.6134   52.7086   13.3892 H   0  0  0  0  0
   56.2184   53.1141   14.5752 H   0  0  0  0  0
   59.1513   53.6418   14.9947 H   0  0  0  0  0
   57.6400   55.2389   16.0820 H   0  0  0  0  0
   56.7121   53.8908   16.7840 H   0  0  0  0  0
   58.4027   54.1589   17.2749 H   0  0  0  0  0
   57.2799   51.5321   16.1327 H   0  0  0  0  0
   58.6201   51.2353   14.9983 H   0  0  0  0  0
   58.9608   51.8195   16.6456 H   0  0  0  0  0
  1  2  1  0  0  0
  2  3  1  0  0  0
  2  5  1  0  0  0
  3  4  2  0  0  0
  3  9  1  0  0  0
  5  6  1  0  0  0
  6  7  2  0  0  0
  6  8  1  0  0  0
  9 10  1  0  0  0
 10 11  1  0  0  0
 10 13  1  0  0  0
 11 12  2  0  0  0
 11 20  1  0  0  0
 13 14  1  0  0  0
 14 15  1  0  0  0
 15 16  1  0  0  0
 16 17  1  0  0  0
 17 18  1  0  0  0
 17 19  2  0  0  0
 20 21  1  0  0  0
 20 26  1  0  0  0
 21 22  1  0  0  0
 21 24  1  0  0  0
 22 23  2  0  0  0
 22 27  1  0  0  0
 24 25  1  0  0  0
 25 26  1  0  0  0
 27 28  1  0  0  0
 28 29  1  0  0  0
 28 31  1  0  0  0
 29 30  2  0  0  0
 29 35  1  0  0  0
 31 32  1  0  0  0
 31 33  1  0  0  0
 32 34  1  0  0  0
 35 36  1  0  0  0
 36 37  1  0  0  0
 36 39  1  0  0  0
 37 38  2  0  0  0
 37 43  1  0  0  0
 39 40  1  0  0  0
 40 41  1  0  0  0
 40 42  1  0  0  0
 43 44  1  0  0  0
 44 45  1  0  0  0
 44 47  1  0  0  0
 45 46  2  0  0  0
 45 49  1  0  0  0
 47 48  1  0  0  0
 49 50  1  0  0  0
 50 51  1  0  0  0
 50 53  1  0  0  0
 51 52  1  0  0  0
 51 57  2  0  0  0
 53 54  1  0  0  0
 54 55  1  0  0  0
 54 56  1  0  0  0
  1 58  1  0  0  0
  1 59  1  0  0  0
  1 60  1  0  0  0
  2 61  1  0  0  0
  5 62  1  0  0  0
  5 63  1  0  0  0
  8 64  1  0  0  0
  8 65  1  0  0  0
  9 66  1  0  0  0
 10 67  1  0  0  0
 13 68  1  0  0  0
 13 69  1  0  0  0
 14 70  1  0  0  0
 14 71  1  0  0  0
 15 72  1  0  0  0
 15 73  1  0  0  0
 16 74  1  0  0  0
 18 75  1  0  0  0
 18 76  1  0  0  0
 19 77  1  0  0  0
 21 78  1  0  0  0
 24 79  1  0  0  0
 24 80  1  0  0  0
 25 81  1  0  0  0
 25 82  1  0  0  0
 26 83  1  0  0  0
 26 84  1  0  0  0
 27 85  1  0  0  0
 28 86  1  0  0  0
 31 87  1  0  0  0
 32 88  1  0  0  0
 32 89  1  0  0  0
 33 90  1  0  0  0
 33 91  1  0  0  0
 33 92  1  0  0  0
 34 93  1  0  0  0
 34 94  1  0  0  0
 34 95  1  0  0  0
 35 96  1  0  0  0
 36 97  1  0  0  0
 39 98  1  0  0  0
 39 99  1  0  0  0
 40100  1  0  0  0
 41101  1  0  0  0
 41102  1  0  0  0
 41103  1  0  0  0
 42104  1  0  0  0
 42105  1  0  0  0
 42106  1  0  0  0
 43107  1  0  0  0
 44108  1  0  0  0
 47109  1  0  0  0
 47110  1  0  0  0
 48111  1  0  0  0
 49112  1  0  0  0
 50113  1  0  0  0
 52114  1  0  0  0
 53115  1  0  0  0
 53116  1  0  0  0
 54117  1  0  0  0
 55118  1  0  0  0
 55119  1  0  0  0
 55120  1  0  0  0
 56121  1  0  0  0
 56122  1  0  0  0
 56123  1  0  0  0
M  END
$$$$
