4y29_ligand
  -I-interpret- 

 45 49  0  0  0  0  0  0  0  0999 V2000
    2.9130   -4.0920   24.6990 C   0  0  0  0  0
    3.5210   -3.2160   23.7770 C   0  0  0  0  0
    2.8090   -2.0140   23.4410 C   0  0  0  0  0
    1.5650   -1.7060   23.9850 C   0  0  0  0  0
    4.7900   -3.4880   23.1800 C   0  0  0  0  0
    5.2470   -2.5040   22.2910 C   0  0  0  0  0
    4.5290   -1.3550   21.9860 C   0  0  0  0  0
    3.2980   -1.0700   22.5510 C   0  0  0  0  0
    5.5740   -4.5800   23.4080 N   0  0  0  0  0
    6.4600   -2.6150   21.6400 C   0  0  0  0  0
    7.2910   -3.7210   21.8850 C   0  0  0  0  0
    6.8430   -4.7500   22.7500 C   0  0  0  0  0
    5.1720   -5.6650   24.3570 C   0  0  0  0  0
    8.8130   -2.6920   20.3630 C   0  0  0  0  0
    7.9820   -1.5870   20.1550 C   0  0  0  0  0
    6.7540   -1.5520   20.7880 C   0  0  0  0  0
    8.5290   -3.7870   21.2400 C   0  0  0  0  0
    9.3540   -4.9940   21.4320 O   0  0  0  0  0
   10.8130   -5.2580   21.5340 C   0  0  0  0  0
    9.9690   -2.6680   19.6310 O   0  0  0  0  0
    9.9000   -1.3340   18.9720 C   0  0  0  0  0
    1.7110   -3.7470   25.1960 C   0  0  0  0  0
    1.0590   -2.6030   24.8410 C   0  0  0  0  0
    0.9560   -4.4580   26.1080 O   0  0  0  0  0
   -0.4540   -3.9090   25.9270 C   0  0  0  0  0
   -0.1520   -2.5010   25.4950 O   0  0  0  0  0
    3.4009   -5.0192   24.9997 H   0  0  0  0  0
    1.0343   -0.7889   23.7293 H   0  0  0  0  0
    4.9524   -0.6484   21.2722 H   0  0  0  0  0
    2.7475   -0.1603   22.3113 H   0  0  0  0  0
    6.7226   -5.6277   22.1149 H   0  0  0  0  0
    7.5797   -4.7926   23.5522 H   0  0  0  0  0
    5.1087   -6.6111   23.8194 H   0  0  0  0  0
    5.9149   -5.7455   25.1506 H   0  0  0  0  0
    4.2006   -5.4259   24.7898 H   0  0  0  0  0
    8.2965   -0.7693   19.5064 H   0  0  0  0  0
    6.0510   -0.7344   20.6289 H   0  0  0  0  0
   11.3048   -4.9326   20.6173 H   0  0  0  0  0
   11.2219   -4.7085   22.3819 H   0  0  0  0  0
   10.9786   -6.3258   21.6774 H   0  0  0  0  0
    9.0041   -1.2817   18.3534 H   0  0  0  0  0
    9.8631   -0.5553   19.7338 H   0  0  0  0  0
   10.7825   -1.1922   18.3482 H   0  0  0  0  0
   -1.0743   -3.9756   26.8208 H   0  0  0  0  0
   -1.0612   -4.4705   25.2170 H   0  0  0  0  0
  2  1  4  0  0  0
  1 22  4  0  0  0
  2  3  4  0  0  0
  5  2  4  0  0  0
  3  4  4  0  0  0
  8  3  4  0  0  0
  4 23  4  0  0  0
  6  5  4  0  0  0
  9  5  1  0  0  0
  6  7  4  0  0  0
 10  6  1  0  0  0
  7  8  4  0  0  0
 12  9  1  0  0  0
  9 13  1  0  0  0
 11 10  4  0  0  0
 10 16  4  0  0  0
 11 12  1  0  0  0
 17 11  4  0  0  0
 14 15  4  0  0  0
 14 17  4  0  0  0
 14 20  1  0  0  0
 15 16  4  0  0  0
 17 18  1  0  0  0
 18 19  1  0  0  0
 20 21  1  0  0  0
 22 23  4  0  0  0
 22 24  1  0  0  0
 23 26  1  0  0  0
 24 25  1  0  0  0
 25 26  1  0  0  0
  1 27  1  0  0  0
  4 28  1  0  0  0
  7 29  1  0  0  0
  8 30  1  0  0  0
 12 31  1  0  0  0
 12 32  1  0  0  0
 13 33  1  0  0  0
 13 34  1  0  0  0
 13 35  1  0  0  0
 15 36  1  0  0  0
 16 37  1  0  0  0
 19 38  1  0  0  0
 19 39  1  0  0  0
 19 40  1  0  0  0
 21 41  1  0  0  0
 21 42  1  0  0  0
 21 43  1  0  0  0
 25 44  1  0  0  0
 25 45  1  0  0  0
M  END
$$$$
