### 
### Created by X-TOOL on Mon Sep 10 21:12:49 2018
### 

@<TRIPOS>MOLECULE
1g9s_ligand
   34    36     1     0     0
SMALL
GAST_HUCK


@<TRIPOS>ATOM
      1 P         -12.5130   60.0120   68.3460 P.3       1 IMP         0.2008
      2 O1P       -13.1720   59.2860   69.4480 O.co2     1 IMP        -0.5537
      3 O2P       -11.0570   59.9200   68.4150 O.co2     1 IMP        -0.5537
      4 O3P       -13.0830   59.6210   67.0510 O.co2     1 IMP        -0.5537
      5 O5        -13.0160   61.5120   68.4380 O.3       1 IMP        -0.2734
      6 C5        -12.4970   62.5320   69.3080 C.3       1 IMP         0.1072
      7 C4        -12.8210   63.8950   68.7740 C.3       1 IMP         0.1182
      8 O4        -14.2440   64.1630   68.7120 O.3       1 IMP        -0.3362
      9 C3        -12.2660   64.9390   69.6840 C.3       1 IMP         0.1149
     10 O3        -10.9650   65.3270   69.2350 O.3       1 IMP        -0.3864
     11 C2        -13.2150   66.0740   69.5600 C.3       1 IMP         0.1389
     12 O2        -12.7610   67.0150   68.6010 O.3       1 IMP        -0.3835
     13 C1        -14.5840   65.4960   69.1700 C.3       1 IMP         0.2003
     14 N9        -15.5280   65.4610   70.3990 N.pl3     1 IMP        -0.2045
     15 C8        -15.7950   64.3630   71.2310 C.2       1 IMP         0.1004
     16 N7        -16.6410   64.6000   72.2210 N.2       1 IMP        -0.3155
     17 C5        -16.9870   65.9490   72.0820 C.2       1 IMP         0.1044
     18 C6        -17.8820   66.7720   72.8830 C.2       1 IMP         0.2200
     19 O6        -18.5230   66.4290   73.8780 O.2       1 IMP        -0.4066
     20 N1        -17.9770   68.1040   72.4250 N.am      1 IMP        -0.2042
     21 C2        -17.2920   68.6180   71.3020 C.2       1 IMP         0.1273
     22 N3        -16.4430   67.8450   70.5360 N.2       1 IMP        -0.2683
     23 C4        -16.3240   66.5120   70.9710 C.2       1 IMP         0.1354
     24 H1        -11.4050   62.4229   69.3821 H         1 IMP         0.0639
     25 H2        -12.9454   62.4187   70.3060 H         1 IMP         0.0639
     26 H3        -12.3835   63.9929   67.7695 H         1 IMP         0.0650
     27 H4        -12.2144   64.5772   70.7215 H         1 IMP         0.0648
     28 H5        -10.6155   65.9916   69.8170 H         1 IMP         0.2100
     29 H6        -13.3013   66.5812   70.5323 H         1 IMP         0.0677
     30 H7        -11.9142   67.3534   68.8673 H         1 IMP         0.2101
     31 H8        -15.0513   66.0826   68.3654 H         1 IMP         0.1001
     32 H9        -15.3392   63.3866   71.0736 H         1 IMP         0.1213
     33 H10       -18.5717   68.7280   72.9319 H         1 IMP         0.2557
     34 H11       -17.4390   69.6623   71.0305 H         1 IMP         0.1493
@<TRIPOS>BOND
     1    1    2 ar 
     2    1    3 ar 
     3    1    4 ar 
     4    1    5 1  
     5    5    6 1  
     6    6    7 1  
     7    7    8 1  
     8    7    9 1  
     9    8   13 1  
    10    9   10 1  
    11    9   11 1  
    12   11   12 1  
    13   11   13 1  
    14   13   14 1  
    15   14   15 1  
    16   14   23 1  
    17   15   16 2  
    18   16   17 1  
    19   17   18 1  
    20   17   23 2  
    21   18   19 2  
    22   18   20 am 
    23   20   21 am 
    24   21   22 2  
    25   22   23 1  
    26    6   24 1  
    27    6   25 1  
    28    7   26 1  
    29    9   27 1  
    30   10   28 1  
    31   11   29 1  
    32   12   30 1  
    33   13   31 1  
    34   15   32 1  
    35   20   33 1  
    36   21   34 1  
@<TRIPOS>SUBSTRUCTURE
     1 IMP         1

