1g9s_ligand
  -I-interpret- 

 36 38  0  0  0  0  0  0  0  0999 V2000
  -12.5130   60.0120   68.3460 P   0  0  0  0  0
  -13.1720   59.2860   69.4480 O   0  0  0  0  0
  -11.0570   59.9200   68.4150 O   0  0  0  0  0
  -13.0830   59.6210   67.0510 O   0  0  0  0  0
  -13.0160   61.5120   68.4380 O   0  0  0  0  0
  -12.4970   62.5320   69.3080 C   0  0  0  0  0
  -12.8210   63.8950   68.7740 C   0  0  0  0  0
  -14.2440   64.1630   68.7120 O   0  0  0  0  0
  -12.2660   64.9390   69.6840 C   0  0  0  0  0
  -10.9650   65.3270   69.2350 O   0  0  0  0  0
  -13.2150   66.0740   69.5600 C   0  0  0  0  0
  -12.7610   67.0150   68.6010 O   0  0  0  0  0
  -14.5840   65.4960   69.1700 C   0  0  0  0  0
  -15.5280   65.4610   70.3990 N   0  0  0  0  0
  -15.7950   64.3630   71.2310 C   0  0  0  0  0
  -16.6410   64.6000   72.2210 N   0  0  0  0  0
  -16.9870   65.9490   72.0820 C   0  0  0  0  0
  -17.8820   66.7720   72.8830 C   0  0  0  0  0
  -18.5230   66.4290   73.8780 O   0  0  0  0  0
  -17.9770   68.1040   72.4250 N   0  0  0  0  0
  -17.2920   68.6180   71.3020 C   0  0  0  0  0
  -16.4430   67.8450   70.5360 N   0  0  0  0  0
  -16.3240   66.5120   70.9710 C   0  0  0  0  0
  -14.1242   59.3733   69.3629 H   0  0  0  0  0
  -14.0385   59.7077   67.0839 H   0  0  0  0  0
  -11.4141   62.4253   69.3711 H   0  0  0  0  0
  -12.9509   62.4211   70.2928 H   0  0  0  0  0
  -12.3936   63.9215   67.7717 H   0  0  0  0  0
  -12.1624   64.5956   70.7133 H   0  0  0  0  0
  -10.6118   65.9986   69.8231 H   0  0  0  0  0
  -13.2914   66.6079   70.5072 H   0  0  0  0  0
  -13.3906   67.7371   68.5399 H   0  0  0  0  0
  -15.1158   66.0784   68.4176 H   0  0  0  0  0
  -15.3388   63.3857   71.0734 H   0  0  0  0  0
  -18.5836   68.7405   72.9420 H   0  0  0  0  0
  -17.4392   69.6633   71.0303 H   0  0  0  0  0
  1  2  1  0  0  0
  1  3  2  0  0  0
  1  4  1  0  0  0
  1  5  1  0  0  0
  5  6  1  0  0  0
  6  7  1  0  0  0
  7  8  1  0  0  0
  7  9  1  0  0  0
  8 13  1  0  0  0
  9 10  1  0  0  0
  9 11  1  0  0  0
 11 12  1  0  0  0
 11 13  1  0  0  0
 13 14  1  0  0  0
 14 15  4  0  0  0
 14 23  4  0  0  0
 15 16  4  0  0  0
 16 17  4  0  0  0
 17 18  1  0  0  0
 17 23  4  0  0  0
 18 19  2  0  0  0
 18 20  1  0  0  0
 20 21  1  0  0  0
 21 22  2  0  0  0
 22 23  1  0  0  0
  2 24  1  0  0  0
  4 25  1  0  0  0
  6 26  1  0  0  0
  6 27  1  0  0  0
  7 28  1  0  0  0
  9 29  1  0  0  0
 10 30  1  0  0  0
 11 31  1  0  0  0
 12 32  1  0  0  0
 13 33  1  0  0  0
 15 34  1  0  0  0
 20 35  1  0  0  0
 21 36  1  0  0  0
M  END
$$$$
