2gvz_ligand
  -I-interpret- 

 66 69  0  0  0  0  0  0  0  0999 V2000
   66.4750  -13.8310   54.2670 C   0  0  0  0  0
   65.0900  -14.2600   54.5890 N   0  0  0  0  0
   64.6280  -15.4970   54.9490 C   0  0  0  0  0
   65.6330  -16.7210   55.0680 C   0  0  0  0  0
   65.0050  -18.1670   55.2880 C   0  0  0  0  0
   63.5100  -18.2060   55.7560 C   0  0  0  0  0
   62.7080  -16.8750   55.5750 C   0  0  0  0  0
   63.2250  -15.6280   55.2040 C   0  0  0  0  0
   62.2010  -14.4790   55.1090 C   0  0  0  0  0
   62.2030  -13.3990   56.0610 O   0  0  0  0  0
   57.5360   -9.8790   54.5440 P   0  0  0  0  0
   58.0550   -8.7880   53.5430 O   0  0  0  0  0
   56.2280  -10.4840   54.2330 O   0  0  0  0  0
   57.7730   -9.6350   56.0790 O   0  0  0  0  0
   56.7890   -8.9600   57.0770 P   0  0  0  0  0
   55.6160  -10.0680   56.9290 O   0  0  0  0  0
   56.1280   -7.5930   56.8900 O   0  0  0  0  0
   57.6880   -9.3530   58.2650 O   0  0  0  0  0
   58.4560   -8.1580   58.8760 P   0  0  0  0  0
   58.9490   -7.1550   57.6840 O   0  0  0  0  0
   57.3550   -7.4640   59.8430 O   0  0  0  0  0
   59.6300   -8.6540   59.6390 O   0  0  0  0  0
   57.4750  -15.5500   52.2530 N   0  0  0  0  0
   57.2030  -16.8360   51.9360 C   0  0  0  0  0
   56.1400  -16.8940   51.1300 N   0  0  0  0  0
   55.7230  -15.6530   50.9250 C   0  0  0  0  0
   56.5740  -14.7780   51.6440 C   0  0  0  0  0
   56.3950  -13.4190   51.6250 N   0  0  0  0  0
   55.4100  -12.8080   50.9330 C   0  0  0  0  0
   54.5160  -13.6240   50.1830 N   0  0  0  0  0
   54.6750  -15.0600   50.1770 C   0  0  0  0  0
   53.8360  -15.8190   49.4700 N   0  0  0  0  0
   61.3070  -14.5820   54.0780 O   0  0  0  0  0
   60.3130  -13.5540   53.6830 C   0  0  0  0  0
   59.5560  -14.0960   52.4810 C   0  0  0  0  0
   60.4470  -14.7100   51.5470 O   0  0  0  0  0
   59.1710  -13.4130   54.6860 C   0  0  0  0  0
   58.4050  -12.0480   54.8740 C   0  0  0  0  0
   58.7830  -10.9190   54.3950 O   0  0  0  0  0
   58.1630  -14.4440   54.3430 O   0  0  0  0  0
   58.6190  -15.1150   53.1320 C   0  0  0  0  0
   67.1183  -14.0072   55.1291 H   0  0  0  0  0
   66.8424  -14.4030   53.4150 H   0  0  0  0  0
   66.4772  -12.7690   54.0214 H   0  0  0  0  0
   66.2333  -16.5231   55.9560 H   0  0  0  0  0
   66.1525  -16.7688   54.1110 H   0  0  0  0  0
   65.5859  -18.6341   56.0833 H   0  0  0  0  0
   65.0340  -18.6630   54.3178 H   0  0  0  0  0
   63.5266  -18.4135   56.8259 H   0  0  0  0  0
   63.0122  -18.9530   55.1377 H   0  0  0  0  0
   61.6344  -16.9236   55.7568 H   0  0  0  0  0
   58.9086   -8.4637   53.8392 H   0  0  0  0  0
   55.9900  -10.9451   57.0402 H   0  0  0  0  0
   58.1847   -6.8394   57.1964 H   0  0  0  0  0
   56.6144   -7.1575   59.3145 H   0  0  0  0  0
   57.7687  -17.6991   52.2870 H   0  0  0  0  0
   55.3023  -11.7234   50.9479 H   0  0  0  0  0
   53.9463  -16.8330   49.4653 H   0  0  0  0  0
   53.0842  -15.3853   48.9342 H   0  0  0  0  0
   60.8711  -12.6266   53.5544 H   0  0  0  0  0
   59.0325  -13.3353   51.9019 H   0  0  0  0  0
   59.9453  -15.0431   50.7994 H   0  0  0  0  0
   59.6892  -13.5096   55.6400 H   0  0  0  0  0
   58.4852  -11.8829   55.9484 H   0  0  0  0  0
   57.4741  -12.2283   54.3364 H   0  0  0  0  0
   59.1343  -16.0545   53.3317 H   0  0  0  0  0
  2  1  1  0  0  0
  3  2  2  0  0  0
  3  4  1  0  0  0
  8  3  1  0  0  0
  4  5  1  0  0  0
  6  5  1  0  0  0
  7  6  1  0  0  0
  8  7  2  0  0  0
  9  8  1  0  0  0
  9 10  2  0  0  0
 33  9  1  0  0  0
 11 12  1  0  0  0
 11 13  2  0  0  0
 11 14  1  0  0  0
 39 11  1  0  0  0
 14 15  1  0  0  0
 15 16  1  0  0  0
 15 17  2  0  0  0
 15 18  1  0  0  0
 18 19  1  0  0  0
 19 20  1  0  0  0
 19 21  1  0  0  0
 19 22  2  0  0  0
 23 24  4  0  0  0
 23 27  4  0  0  0
 41 23  1  0  0  0
 24 25  4  0  0  0
 26 25  4  0  0  0
 27 26  4  0  0  0
 26 31  4  0  0  0
 27 28  4  0  0  0
 28 29  4  0  0  0
 29 30  4  0  0  0
 31 30  4  0  0  0
 31 32  1  0  0  0
 34 33  1  0  0  0
 34 35  1  0  0  0
 37 34  1  0  0  0
 35 36  1  0  0  0
 35 41  1  0  0  0
 38 37  1  0  0  0
 37 40  1  0  0  0
 38 39  1  0  0  0
 40 41  1  0  0  0
  1 42  1  0  0  0
  1 43  1  0  0  0
  1 44  1  0  0  0
  4 45  1  0  0  0
  4 46  1  0  0  0
  5 47  1  0  0  0
  5 48  1  0  0  0
  6 49  1  0  0  0
  6 50  1  0  0  0
  7 51  1  0  0  0
 12 52  1  0  0  0
 16 53  1  0  0  0
 20 54  1  0  0  0
 21 55  1  0  0  0
 24 56  1  0  0  0
 29 57  1  0  0  0
 32 58  1  0  0  0
 32 59  1  0  0  0
 34 60  1  0  0  0
 35 61  1  0  0  0
 36 62  1  0  0  0
 37 63  1  0  0  0
 38 64  1  0  0  0
 38 65  1  0  0  0
 41 66  1  0  0  0
M  END
$$$$
