### 
### Created by X-TOOL on Mon Sep 10 21:12:55 2018
### 

@<TRIPOS>MOLECULE
2gvz_ligand
   62    65     1     0     0
SMALL
GAST_HUCK


@<TRIPOS>ATOM
      1 CA7        66.4750  -13.8310   54.2670 C.3       1 ONA        -0.0266
      2 NA1        65.0900  -14.2600   54.5890 N.2       1 ONA        -0.3777
      3 CA6        64.6280  -15.4970   54.9490 C.2       1 ONA         0.0211
      4 CA5        65.6330  -16.7210   55.0680 C.3       1 ONA         0.0064
      5 CA4        65.0050  -18.1670   55.2880 C.3       1 ONA        -0.0193
      6 CA3        63.5100  -18.2060   55.7560 C.3       1 ONA         0.0027
      7 CA2        62.7080  -16.8750   55.5750 C.2       1 ONA        -0.0213
      8 CA1        63.2250  -15.6280   55.2040 C.2       1 ONA         0.0968
      9 CA         62.2010  -14.4790   55.1090 C.2       1 ONA         0.2545
     10 OA         62.2030  -13.3990   56.0610 O.2       1 ONA        -0.3703
     11 PA         57.5360   -9.8790   54.5440 P.3       1 ONA         0.3266
     12 O3A        58.0550   -8.7880   53.5430 O.co2     1 ONA        -0.5692
     13 O2A        56.2280  -10.4840   54.2330 O.co2     1 ONA        -0.5692
     14 O1A        57.7730   -9.6350   56.0790 O.3       1 ONA        -0.1171
     15 PB         56.7890   -8.9600   57.0770 P.3       1 ONA         0.3553
     16 O3B        55.6160  -10.0680   56.9290 O.co2     1 ONA        -0.5652
     17 O2B        56.1280   -7.5930   56.8900 O.co2     1 ONA        -0.5652
     18 O1B        57.6880   -9.3530   58.2650 O.3       1 ONA        -0.1546
     19 PG         58.4560   -8.1580   58.8760 P.3       1 ONA         0.1879
     20 O3G        58.9490   -7.1550   57.6840 O.co2     1 ONA        -0.6091
     21 O1G        57.3550   -7.4640   59.8430 O.co2     1 ONA        -0.6091
     22 O2G        59.6300   -8.6540   59.6390 O.co2     1 ONA        -0.6091
     23 N9         57.4750  -15.5500   52.2530 N.pl3     1 ONA        -0.1919
     24 C8         57.2030  -16.8360   51.9360 C.2       1 ONA         0.1123
     25 N7         56.1400  -16.8940   51.1300 N.2       1 ONA        -0.2958
     26 C5         55.7230  -15.6530   50.9250 C.ar      1 ONA         0.1045
     27 C4         56.5740  -14.7780   51.6440 C.ar      1 ONA         0.1613
     28 N3         56.3950  -13.4190   51.6250 N.ar      1 ONA        -0.2714
     29 C2         55.4100  -12.8080   50.9330 C.ar      1 ONA         0.0533
     30 N1         54.5160  -13.6240   50.1830 N.ar      1 ONA        -0.2698
     31 C6         54.6750  -15.0600   50.1770 C.ar      1 ONA         0.1298
     32 N6         53.8360  -15.8190   49.4700 N.pl3     1 ONA        -0.3152
     33 O3'        61.3070  -14.5820   54.0780 O.3       1 ONA        -0.2721
     34 C3'        60.3130  -13.5540   53.6830 C.3       1 ONA         0.1455
     35 C2'        59.5560  -14.0960   52.4810 C.3       1 ONA         0.1430
     36 O2'        60.4470  -14.7100   51.5470 O.3       1 ONA        -0.3832
     37 C4'        59.1710  -13.4130   54.6860 C.3       1 ONA         0.1234
     38 C5'        58.4050  -12.0480   54.8740 C.3       1 ONA         0.1134
     39 O5'        58.7830  -10.9190   54.3950 O.3       1 ONA        -0.2441
     40 O4'        58.1630  -14.4440   54.3430 O.3       1 ONA        -0.3360
     41 C1'        58.6190  -15.1150   53.1320 C.3       1 ONA         0.2013
     42 H1         66.4786  -12.7593   54.0190 H         1 ONA         0.0302
     43 H2         66.8469  -14.4075   53.4072 H         1 ONA         0.0302
     44 H3         67.1253  -14.0083   55.1363 H         1 ONA         0.0302
     45 H4         66.3002  -16.5184   55.9188 H         1 ONA         0.0512
     46 H5         66.2224  -16.7552   54.1398 H         1 ONA         0.0512
     47 H6         65.6087  -18.6833   56.0488 H         1 ONA         0.0335
     48 H7         65.0728  -18.7114   54.3346 H         1 ONA         0.0335
     49 H8         63.4970  -18.4658   56.8248 H         1 ONA         0.0562
     50 H9         62.9963  -18.9909   55.1816 H         1 ONA         0.0562
     51 H10        61.6353  -16.9236   55.7566 H         1 ONA         0.1100
     52 H11        57.7682  -17.6983   52.2867 H         1 ONA         0.1349
     53 H12        55.3029  -11.7294   50.9478 H         1 ONA         0.0996
     54 H13        53.0769  -15.3810   48.9289 H         1 ONA         0.1820
     55 H14        53.9474  -16.8430   49.4653 H         1 ONA         0.1820
     56 H15        60.8082  -12.5919   53.4853 H         1 ONA         0.0702
     57 H16        58.9880  -13.3018   51.9745 H         1 ONA         0.0680
     58 H17        60.9016  -15.4288   51.9703 H         1 ONA         0.2101
     59 H18        59.6019  -13.6531   55.6692 H         1 ONA         0.0654
     60 H19        58.3376  -11.8971   55.9615 H         1 ONA         0.0648
     61 H20        57.3984  -12.2179   54.4642 H         1 ONA         0.0648
     62 H21        59.1921  -16.0144   53.4014 H         1 ONA         0.0996
@<TRIPOS>BOND
     1    2    1 1  
     2    3    2 2  
     3    3    4 1  
     4    8    3 1  
     5    4    5 1  
     6    6    5 1  
     7    7    6 1  
     8    8    7 2  
     9    9    8 1  
    10    9   10 2  
    11   33    9 1  
    12   11   12 ar 
    13   11   13 ar 
    14   11   14 1  
    15   39   11 1  
    16   14   15 1  
    17   15   16 ar 
    18   15   17 ar 
    19   15   18 1  
    20   18   19 1  
    21   19   20 ar 
    22   19   21 ar 
    23   19   22 ar 
    24   23   24 1  
    25   23   27 1  
    26   41   23 1  
    27   24   25 2  
    28   26   25 1  
    29   27   26 ar 
    30   26   31 ar 
    31   27   28 ar 
    32   28   29 ar 
    33   29   30 ar 
    34   31   30 ar 
    35   31   32 1  
    36   34   33 1  
    37   34   35 1  
    38   37   34 1  
    39   35   36 1  
    40   35   41 1  
    41   38   37 1  
    42   37   40 1  
    43   38   39 1  
    44   40   41 1  
    45    1   42 1  
    46    1   43 1  
    47    1   44 1  
    48    4   45 1  
    49    4   46 1  
    50    5   47 1  
    51    5   48 1  
    52    6   49 1  
    53    6   50 1  
    54    7   51 1  
    55   24   52 1  
    56   29   53 1  
    57   32   54 1  
    58   32   55 1  
    59   34   56 1  
    60   35   57 1  
    61   36   58 1  
    62   37   59 1  
    63   38   60 1  
    64   38   61 1  
    65   41   62 1  
@<TRIPOS>SUBSTRUCTURE
     1 ONA         1

