### 
### Created by X-TOOL on Mon Sep 10 21:12:52 2018
### 

@<TRIPOS>MOLECULE
1r5w_ligand
  212   214     1     0     0
SMALL
GAST_HUCK


@<TRIPOS>ATOM
      1 N           2.0200   46.2630   -4.4430 N.4       1 ALA         0.2377
      2 CA          2.9180   45.0860   -4.6450 C.3       1 ALA         0.0621
      3 C           3.9880   45.0770   -3.5580 C.2       1 ALA         0.2265
      4 O           5.1100   44.6120   -3.7830 O.2       1 ALA        -0.3907
      5 CB          3.5770   45.1590   -6.0380 C.3       1 ALA        -0.0040
      6 N           3.6310   45.5700   -2.3730 N.am      1 ASP        -0.2595
      7 CA          4.5890   45.6650   -1.2740 C.3       1 ASP         0.1424
      8 C           5.3330   44.3830   -0.9020 C.2       1 ASP         0.2056
      9 O           4.8730   43.2660   -1.1420 O.2       1 ASP        -0.3943
     10 CB          3.9220   46.2780   -0.0290 C.3       1 ASP         0.0406
     11 CG          4.7980   47.3490    0.6390 C.2       1 ASP         0.0393
     12 OD1         5.5780   47.0160    1.5630 O.co2     1 ASP        -0.5688
     13 OD2         4.7180   48.5270    0.2200 O.co2     1 ASP        -0.5688
     14 N           6.5060   44.5870   -0.3160 N.am      1 LEU        -0.2636
     15 CA          7.3980   43.5240    0.1140 C.3       1 LEU         0.1312
     16 C           6.7800   42.4790    1.0520 C.2       1 LEU         0.2039
     17 O           5.8820   42.7600    1.8460 O.2       1 LEU        -0.3944
     18 CB          8.6440   44.1610    0.7570 C.3       1 LEU        -0.0101
     19 CG          9.7910   43.3530    1.3800 C.3       1 LEU        -0.0425
     20 CD1         9.3390   42.7850    2.7110 C.3       1 LEU        -0.0625
     21 CD2        10.2510   42.2540    0.4350 C.3       1 LEU        -0.0625
     22 N           7.2980   41.2660    0.9320 N.am      1 ILE        -0.2635
     23 CA          6.8830   40.1150    1.7150 C.3       1 ILE         0.1335
     24 C           7.9190   39.9360    2.8380 C.2       1 ILE         0.2041
     25 O           9.0290   39.4570    2.5900 O.2       1 ILE        -0.3944
     26 CB          6.8440   38.8540    0.7870 C.3       1 ILE        -0.0037
     27 CG1         5.4800   38.7380    0.0940 C.3       1 ILE        -0.0491
     28 CG2         7.1570   37.5940    1.5730 C.3       1 ILE        -0.0582
     29 CD1         5.1220   39.8760   -0.8060 C.3       1 ILE        -0.0648
     30 N           7.5710   40.3270    4.0650 N.am      1 ALA        -0.2640
     31 CA          8.5070   40.2090    5.1880 C.3       1 ALA         0.1282
     32 C           8.7150   38.7680    5.6270 C.2       1 ALA         0.2037
     33 O           7.8030   37.9460    5.5490 O.2       1 ALA        -0.3944
     34 CB          8.0280   41.0460    6.3640 C.3       1 ALA        -0.0244
     35 N           9.9200   38.4680    6.0950 N.am      1 TYR        -0.2621
     36 CA         10.2200   37.1150    6.5270 C.3       1 TYR         0.1390
     37 C          10.3540   36.9600    8.0410 C.2       1 TYR         0.2059
     38 O           9.6890   37.6760    8.7900 O.2       1 TYR        -0.3942
     39 CB         11.4700   36.5970    5.8030 C.3       1 TYR         0.0163
     40 CG         12.7930   37.2630    6.1400 C.ar      1 TYR        -0.0493
     41 CD1        13.8320   36.5100    6.6920 C.ar      1 TYR        -0.0685
     42 CD2        13.0350   38.6170    5.8600 C.ar      1 TYR        -0.0685
     43 CE1        15.0870   37.0710    6.9570 C.ar      1 TYR        -0.0398
     44 CE2        14.2990   39.1970    6.1250 C.ar      1 TYR        -0.0398
     45 CZ         15.3270   38.4080    6.6780 C.ar      1 TYR         0.0805
     46 OH         16.5960   38.9150    6.9680 O.3       1 TYR        -0.3376
     47 N          11.1810   36.0150    8.4930 N.am      1 PHE        -0.2618
     48 CA         11.3790   35.7640    9.9300 C.3       1 PHE         0.1404
     49 C          12.8560   35.6610   10.2360 C.2       1 PHE         0.2060
     50 O          13.4860   34.6850    9.8380 O.2       1 PHE        -0.3942
     51 CB         10.7320   34.4350   10.3420 C.3       1 PHE         0.0214
     52 CG          9.2290   34.4820   10.4580 C.ar      1 PHE        -0.0386
     53 CD1         8.4570   35.2620    9.5900 C.ar      1 PHE        -0.0601
     54 CD2         8.5770   33.7040   11.4060 C.ar      1 PHE        -0.0601
     55 CE1         7.0640   35.2640    9.6610 C.ar      1 PHE        -0.0686
     56 CE2         7.1760   33.7010   11.4820 C.ar      1 PHE        -0.0686
     57 CZ          6.4200   34.4890   10.6000 C.ar      1 PHE        -0.0687
     58 N          13.4190   36.6290   10.9520 N.am      1 LYS        -0.2636
     59 CA         14.8540   36.5470   11.2360 C.3       1 LYS         0.1310
     60 C          15.1820   35.3240   12.0670 C.2       1 LYS         0.2039
     61 O          14.8380   35.2590   13.2410 O.2       1 LYS        -0.3944
     62 CB         15.3620   37.7990   11.9610 C.3       1 LYS        -0.0122
     63 CG         15.9780   38.8620   11.0520 C.3       1 LYS        -0.0440
     64 CD         16.4440   40.0530   11.8650 C.3       1 LYS        -0.0124
     65 CE         15.2830   40.6940   12.6360 C.3       1 LYS        -0.0354
     66 NZ         15.7040   41.6150   13.7500 N.4       1 LYS         0.2185
     67 N          15.8540   34.3550   11.4580 N.am      1 ALA        -0.2640
     68 CA         16.2210   33.1360   12.1690 C.3       1 ALA         0.1282
     69 C          16.9570   33.4700   13.4640 C.2       1 ALA         0.2036
     70 O          17.0270   34.6250   13.8750 O.2       1 ALA        -0.3944
     71 CB         17.0880   32.2420   11.2780 C.3       1 ALA        -0.0244
     72 N          17.5050   32.4540   14.1120 N.am      1 ALA        -0.2640
     73 CA         18.2150   32.6760   15.3580 C.3       1 ALA         0.1282
     74 C          19.4540   31.8190   15.4120 C.2       1 ALA         0.2037
     75 O          19.5350   30.7810   14.7440 O.2       1 ALA        -0.3944
     76 CB         17.3120   32.3600   16.5400 C.3       1 ALA        -0.0244
     77 N          20.4160   32.2630   16.2160 N.am      1 THR        -0.2613
     78 CA         21.6630   31.5360   16.3640 C.3       1 THR         0.1565
     79 C          21.5980   30.6430   17.5820 C.2       1 THR         0.2065
     80 O          21.3360   31.0960   18.6990 O.2       1 THR        -0.3943
     81 CB         22.8710   32.4740   16.5080 C.3       1 THR         0.0924
     82 OG1        22.9050   33.3970   15.4080 O.3       1 THR        -0.3874
     83 CG2        24.1600   31.6520   16.5160 C.3       1 THR        -0.0346
     84 N          21.8380   29.3610   17.3390 N.am      1 LYS        -0.2637
     85 CA         21.8030   28.3460   18.3770 C.3       1 LYS         0.1309
     86 C          23.2110   28.1690   18.8960 C.2       1 LYS         0.2035
     87 O          24.0290   27.5010   18.2710 O.2       1 LYS        -0.3944
     88 CB         21.2650   27.0270   17.7950 C.3       1 LYS        -0.0122
     89 CG         19.9970   27.2230   16.9350 C.3       1 LYS        -0.0440
     90 CD         19.1500   25.9580   16.7500 C.3       1 LYS        -0.0124
     91 CE         17.8550   26.2880   15.9970 C.3       1 LYS        -0.0354
     92 NZ         16.8470   25.1990   16.0710 N.4       1 LYS         0.2185
     93 N          23.4930   28.7860   20.0360 N.am      1 PHE        -0.2677
     94 CA         24.8190   28.6940   20.6200 C.3       1 PHE         0.1039
     95 C          25.0660   27.2860   21.1410 C.2       1 PHE         0.0621
     96 O          24.0720   26.5420   21.2840 O.co2     1 PHE        -0.5664
     97 CB         24.9670   29.7100   21.7570 C.3       1 PHE         0.0159
     98 CG         24.7090   31.1320   21.3380 C.ar      1 PHE        -0.0392
     99 CD1        23.3950   31.6000   21.1720 C.ar      1 PHE        -0.0602
    100 CD2        25.7790   32.0030   21.0840 C.ar      1 PHE        -0.0602
    101 CE1        23.1390   32.9310   20.7550 C.ar      1 PHE        -0.0686
    102 CE2        25.5450   33.3330   20.6660 C.ar      1 PHE        -0.0686
    103 CZ         24.2160   33.8010   20.5010 C.ar      1 PHE        -0.0687
    104 OXT        26.2430   26.9510   21.4000 O.co2     1 PHE        -0.5664
    105 H1          1.3115   46.2720   -5.1599 H         1 ALA         0.2015
    106 H2          2.5614   47.1116   -4.4951 H         1 ALA         0.2015
    107 H3          1.5812   46.1994   -3.5378 H         1 ALA         0.2015
    108 H4          2.3251   44.1621   -4.5764 H         1 ALA         0.1095
    109 H5          4.2358   44.2893   -6.1780 H         1 ALA         0.0310
    110 H6          4.1684   46.0832   -6.1159 H         1 ALA         0.0310
    111 H7          2.7968   45.1564   -6.8134 H         1 ALA         0.0310
    112 H8          2.6908   45.8805   -2.2332 H         1 ASP         0.1886
    113 H9          5.3606   46.3739   -1.6089 H         1 ASP         0.0819
    114 H10         3.7284   45.4761    0.6987 H         1 ASP         0.0478
    115 H11         2.9693   46.7384   -0.3295 H         1 ASP         0.0478
    116 H12         6.7941   45.5319   -0.1606 H         1 LEU         0.1883
    117 H13         7.7183   42.9858   -0.7903 H         1 LEU         0.0800
    118 H14         8.2668   44.8123    1.5592 H         1 LEU         0.0315
    119 H15         9.1047   44.7769   -0.0294 H         1 LEU         0.0315
    120 H16        10.6398   44.0292    1.5596 H         1 LEU         0.0298
    121 H17        10.1591   42.2054    3.1598 H         1 LEU         0.0232
    122 H18         8.4699   42.1293    2.5537 H         1 LEU         0.0232
    123 H19         9.0601   43.6081    3.3852 H         1 LEU         0.0232
    124 H20        10.5710   42.7002   -0.5181 H         1 LEU         0.0232
    125 H21         9.4207   41.5560    0.2525 H         1 LEU         0.0232
    126 H22        11.0941   41.7109    0.8869 H         1 LEU         0.0232
    127 H23         8.0237   41.1336    0.2569 H         1 ILE         0.1883
    128 H24         5.8860   40.2857    2.1472 H         1 ILE         0.0803
    129 H25         7.6147   38.9743    0.0114 H         1 ILE         0.0345
    130 H26         4.7076   38.6656    0.8739 H         1 ILE         0.0267
    131 H27         5.4815   37.8168   -0.5072 H         1 ILE         0.0267
    132 H28         8.1375   37.6999    2.0602 H         1 ILE         0.0235
    133 H29         7.1780   36.7317    0.8904 H         1 ILE         0.0235
    134 H30         6.3824   37.4372    2.3381 H         1 ILE         0.0235
    135 H31         4.1318   39.6951   -1.2496 H         1 ILE         0.0230
    136 H32         5.8722   39.9609   -1.6060 H         1 ILE         0.0230
    137 H33         5.0983   40.8097   -0.2249 H         1 ILE         0.0230
    138 H34         6.6589   40.7060    4.2214 H         1 ALA         0.1883
    139 H35         9.4790   40.6036    4.8572 H         1 ALA         0.0797
    140 H36         8.7389   40.9478    7.1976 H         1 ALA         0.0277
    141 H37         7.0363   40.6943    6.6846 H         1 ALA         0.0277
    142 H38         7.9624   42.1012    6.0605 H         1 ALA         0.0277
    143 H39        10.6237   39.1763    6.1503 H         1 TYR         0.1885
    144 H40         9.3733   36.4845    6.2180 H         1 TYR         0.0821
    145 H41        11.3024   36.7215    4.7230 H         1 TYR         0.0453
    146 H42        11.5689   35.5269    6.0378 H         1 TYR         0.0453
    147 H43        13.6622   35.4642    6.9211 H         1 TYR         0.0530
    148 H44        12.2447   39.2258    5.4358 H         1 TYR         0.0530
    149 H45        15.8738   36.4582    7.3817 H         1 TYR         0.0525
    150 H46        14.4751   40.2434    5.9034 H         1 TYR         0.0525
    151 H47        17.1364   38.2237    7.3320 H         1 TYR         0.2458
    152 H48        11.6839   35.4578    7.8322 H         1 PHE         0.1885
    153 H49        10.9339   36.5883   10.5066 H         1 PHE         0.0823
    154 H50        11.1431   34.1407   11.3189 H         1 PHE         0.0474
    155 H51        10.9952   33.6767    9.5899 H         1 PHE         0.0474
    156 H52         8.9516   35.8773    8.8472 H         1 PHE         0.0557
    157 H53         9.1546   33.0949   12.0919 H         1 PHE         0.0557
    158 H54         6.4878   35.8760    8.9766 H         1 PHE         0.0599
    159 H55         6.6761   33.0886   12.2237 H         1 PHE         0.0599
    160 H56         5.3375   34.4876   10.6575 H         1 PHE         0.0559
    161 H57        12.8747   37.3969   11.2897 H         1 LYS         0.1883
    162 H58        15.3838   36.4657   10.2755 H         1 LYS         0.0800
    163 H59        16.1259   37.4867   12.6883 H         1 LYS         0.0312
    164 H60        14.5135   38.2540   12.4930 H         1 LYS         0.0312
    165 H61        15.2249   39.1946   10.3225 H         1 LYS         0.0269
    166 H62        16.8377   38.4287   10.5199 H         1 LYS         0.0269
    167 H63        16.8791   40.8013   11.1863 H         1 LYS         0.0317
    168 H64        17.2087   39.7196   12.5820 H         1 LYS         0.0317
    169 H65        14.6723   39.8882   13.0692 H         1 LYS         0.0813
    170 H66        14.6757   41.2720   11.9239 H         1 LYS         0.0813
    171 H67        14.8855   41.9913   14.2022 H         1 LYS         0.1994
    172 H68        16.2557   42.3692   13.3721 H         1 LYS         0.1994
    173 H69        16.2526   41.1012   14.4216 H         1 LYS         0.1994
    174 H70        16.1123   34.4624   10.4979 H         1 ALA         0.1883
    175 H71        15.3006   32.5895   12.4224 H         1 ALA         0.0797
    176 H72        17.3567   31.3275   11.8270 H         1 ALA         0.0277
    177 H73        18.0035   32.7827   10.9961 H         1 ALA         0.0277
    178 H74        16.5266   31.9735   10.3709 H         1 ALA         0.0277
    179 H75        17.4293   31.5285   13.7409 H         1 ALA         0.1883
    180 H76        18.5128   33.7335   15.4120 H         1 ALA         0.0797
    181 H77        17.8613   32.5321   17.4773 H         1 ALA         0.0277
    182 H78        16.9953   31.3078   16.4885 H         1 ALA         0.0277
    183 H79        16.4262   33.0115   16.5092 H         1 ALA         0.0277
    184 H80        20.2777   33.1115   16.7267 H         1 THR         0.1884
    185 H81        21.8080   30.9128   15.4693 H         1 THR         0.0826
    186 H82        22.7874   33.0331   17.4516 H         1 THR         0.0639
    187 H83        23.6539   33.9738   15.5031 H         1 THR         0.2101
    188 H84        25.0236   32.3254   16.6192 H         1 THR         0.0257
    189 H85        24.2430   31.0910   15.5734 H         1 THR         0.0257
    190 H86        24.1409   30.9482   17.3611 H         1 THR         0.0257
    191 H87        22.0518   29.0822   16.4027 H         1 LYS         0.1883
    192 H88        21.1466   28.6737   19.1966 H         1 LYS         0.0800
    193 H89        21.0237   26.3488   18.6268 H         1 LYS         0.0312
    194 H90        22.0477   26.5747   17.1683 H         1 LYS         0.0312
    195 H91        20.3078   27.5763   15.9407 H         1 LYS         0.0269
    196 H92        19.3704   27.9881   17.4167 H         1 LYS         0.0269
    197 H93        18.8995   25.5418   17.7369 H         1 LYS         0.0317
    198 H94        19.7251   25.2174   16.1749 H         1 LYS         0.0317
    199 H95        18.1002   26.4674   14.9398 H         1 LYS         0.0813
    200 H96        17.4190   27.1994   16.4321 H         1 LYS         0.0813
    201 H97        16.0211   25.4704   15.5609 H         1 LYS         0.1994
    202 H98        16.6059   25.0292   17.0349 H         1 LYS         0.1994
    203 H99        17.2301   24.3585   15.6674 H         1 LYS         0.1994
    204 H100       22.7849   29.3200   20.4979 H         1 PHE         0.1877
    205 H101       25.5645   28.9203   19.8434 H         1 PHE         0.0749
    206 H102       25.9926   29.6447   22.1492 H         1 PHE         0.0467
    207 H103       24.2531   29.4477   22.5517 H         1 PHE         0.0467
    208 H104       22.5630   30.9327   21.3658 H         1 PHE         0.0557
    209 H105       26.7969   31.6521   21.2097 H         1 PHE         0.0557
    210 H106       22.1189   33.2767   20.6325 H         1 PHE         0.0599
    211 H107       26.3810   33.9952   20.4716 H         1 PHE         0.0599
    212 H108       24.0314   34.8204   20.1819 H         1 PHE         0.0559
@<TRIPOS>BOND
     1    1    2 1  
     2    2    3 1  
     3    2    5 1  
     4    3    4 2  
     5    3    6 am 
     6    6    7 1  
     7    7    8 1  
     8    7   10 1  
     9    8    9 2  
    10    8   14 am 
    11   10   11 1  
    12   11   12 ar 
    13   11   13 ar 
    14   14   15 1  
    15   15   16 1  
    16   15   18 1  
    17   16   17 2  
    18   16   22 am 
    19   18   19 1  
    20   19   20 1  
    21   19   21 1  
    22   22   23 1  
    23   23   24 1  
    24   23   26 1  
    25   24   25 2  
    26   24   30 am 
    27   26   27 1  
    28   26   28 1  
    29   27   29 1  
    30   30   31 1  
    31   31   32 1  
    32   31   34 1  
    33   32   33 2  
    34   32   35 am 
    35   35   36 1  
    36   36   37 1  
    37   36   39 1  
    38   37   38 2  
    39   37   47 am 
    40   39   40 1  
    41   40   41 ar 
    42   40   42 ar 
    43   41   43 ar 
    44   42   44 ar 
    45   43   45 ar 
    46   44   45 ar 
    47   45   46 1  
    48   47   48 1  
    49   48   49 1  
    50   48   51 1  
    51   49   50 2  
    52   49   58 am 
    53   51   52 1  
    54   52   53 ar 
    55   52   54 ar 
    56   53   55 ar 
    57   54   56 ar 
    58   55   57 ar 
    59   56   57 ar 
    60   58   59 1  
    61   59   60 1  
    62   59   62 1  
    63   60   61 2  
    64   60   67 am 
    65   62   63 1  
    66   63   64 1  
    67   64   65 1  
    68   65   66 1  
    69   67   68 1  
    70   68   69 1  
    71   68   71 1  
    72   69   70 2  
    73   69   72 am 
    74   72   73 1  
    75   73   74 1  
    76   73   76 1  
    77   74   75 2  
    78   74   77 am 
    79   77   78 1  
    80   78   79 1  
    81   78   81 1  
    82   79   80 2  
    83   79   84 am 
    84   81   82 1  
    85   81   83 1  
    86   84   85 1  
    87   85   86 1  
    88   85   88 1  
    89   86   87 2  
    90   86   93 am 
    91   88   89 1  
    92   89   90 1  
    93   90   91 1  
    94   91   92 1  
    95   93   94 1  
    96   94   95 1  
    97   94   97 1  
    98   95   96 ar 
    99   95  104 ar 
   100   97   98 1  
   101   98   99 ar 
   102   98  100 ar 
   103   99  101 ar 
   104  100  102 ar 
   105  101  103 ar 
   106  102  103 ar 
   107    1  105 1  
   108    1  106 1  
   109    1  107 1  
   110    2  108 1  
   111    5  109 1  
   112    5  110 1  
   113    5  111 1  
   114    6  112 1  
   115    7  113 1  
   116   10  114 1  
   117   10  115 1  
   118   14  116 1  
   119   15  117 1  
   120   18  118 1  
   121   18  119 1  
   122   19  120 1  
   123   20  121 1  
   124   20  122 1  
   125   20  123 1  
   126   21  124 1  
   127   21  125 1  
   128   21  126 1  
   129   22  127 1  
   130   23  128 1  
   131   26  129 1  
   132   27  130 1  
   133   27  131 1  
   134   28  132 1  
   135   28  133 1  
   136   28  134 1  
   137   29  135 1  
   138   29  136 1  
   139   29  137 1  
   140   30  138 1  
   141   31  139 1  
   142   34  140 1  
   143   34  141 1  
   144   34  142 1  
   145   35  143 1  
   146   36  144 1  
   147   39  145 1  
   148   39  146 1  
   149   41  147 1  
   150   42  148 1  
   151   43  149 1  
   152   44  150 1  
   153   46  151 1  
   154   47  152 1  
   155   48  153 1  
   156   51  154 1  
   157   51  155 1  
   158   53  156 1  
   159   54  157 1  
   160   55  158 1  
   161   56  159 1  
   162   57  160 1  
   163   58  161 1  
   164   59  162 1  
   165   62  163 1  
   166   62  164 1  
   167   63  165 1  
   168   63  166 1  
   169   64  167 1  
   170   64  168 1  
   171   65  169 1  
   172   65  170 1  
   173   66  171 1  
   174   66  172 1  
   175   66  173 1  
   176   67  174 1  
   177   68  175 1  
   178   71  176 1  
   179   71  177 1  
   180   71  178 1  
   181   72  179 1  
   182   73  180 1  
   183   76  181 1  
   184   76  182 1  
   185   76  183 1  
   186   77  184 1  
   187   78  185 1  
   188   81  186 1  
   189   82  187 1  
   190   83  188 1  
   191   83  189 1  
   192   83  190 1  
   193   84  191 1  
   194   85  192 1  
   195   88  193 1  
   196   88  194 1  
   197   89  195 1  
   198   89  196 1  
   199   90  197 1  
   200   90  198 1  
   201   91  199 1  
   202   91  200 1  
   203   92  201 1  
   204   92  202 1  
   205   92  203 1  
   206   93  204 1  
   207   94  205 1  
   208   97  206 1  
   209   97  207 1  
   210   99  208 1  
   211  100  209 1  
   212  101  210 1  
   213  102  211 1  
   214  103  212 1  
@<TRIPOS>SUBSTRUCTURE
     1 ALA         1

