1r5w_ligand
  -I-interpret- 

214216  0  0  0  0  0  0  0  0999 V2000
    2.0200   46.2630   -4.4430 N   0  3  0  0  0
    2.9180   45.0860   -4.6450 C   0  0  0  0  0
    3.9880   45.0770   -3.5580 C   0  0  0  0  0
    5.1100   44.6120   -3.7830 O   0  0  0  0  0
    3.5770   45.1590   -6.0380 C   0  0  0  0  0
    3.6310   45.5700   -2.3730 N   0  0  0  0  0
    4.5890   45.6650   -1.2740 C   0  0  0  0  0
    5.3330   44.3830   -0.9020 C   0  0  0  0  0
    4.8730   43.2660   -1.1420 O   0  0  0  0  0
    3.9220   46.2780   -0.0290 C   0  0  0  0  0
    4.7980   47.3490    0.6390 C   0  0  0  0  0
    5.5780   47.0160    1.5630 O   0  0  0  0  0
    4.7180   48.5270    0.2200 O   0  0  0  0  0
    6.5060   44.5870   -0.3160 N   0  0  0  0  0
    7.3980   43.5240    0.1140 C   0  0  0  0  0
    6.7800   42.4790    1.0520 C   0  0  0  0  0
    5.8820   42.7600    1.8460 O   0  0  0  0  0
    8.6440   44.1610    0.7570 C   0  0  0  0  0
    9.7910   43.3530    1.3800 C   0  0  0  0  0
    9.3390   42.7850    2.7110 C   0  0  0  0  0
   10.2510   42.2540    0.4350 C   0  0  0  0  0
    7.2980   41.2660    0.9320 N   0  0  0  0  0
    6.8830   40.1150    1.7150 C   0  0  0  0  0
    7.9190   39.9360    2.8380 C   0  0  0  0  0
    9.0290   39.4570    2.5900 O   0  0  0  0  0
    6.8440   38.8540    0.7870 C   0  0  0  0  0
    5.4800   38.7380    0.0940 C   0  0  0  0  0
    7.1570   37.5940    1.5730 C   0  0  0  0  0
    5.1220   39.8760   -0.8060 C   0  0  0  0  0
    7.5710   40.3270    4.0650 N   0  0  0  0  0
    8.5070   40.2090    5.1880 C   0  0  0  0  0
    8.7150   38.7680    5.6270 C   0  0  0  0  0
    7.8030   37.9460    5.5490 O   0  0  0  0  0
    8.0280   41.0460    6.3640 C   0  0  0  0  0
    9.9200   38.4680    6.0950 N   0  0  0  0  0
   10.2200   37.1150    6.5270 C   0  0  0  0  0
   10.3540   36.9600    8.0410 C   0  0  0  0  0
    9.6890   37.6760    8.7900 O   0  0  0  0  0
   11.4700   36.5970    5.8030 C   0  0  0  0  0
   12.7930   37.2630    6.1400 C   0  0  0  0  0
   13.8320   36.5100    6.6920 C   0  0  0  0  0
   13.0350   38.6170    5.8600 C   0  0  0  0  0
   15.0870   37.0710    6.9570 C   0  0  0  0  0
   14.2990   39.1970    6.1250 C   0  0  0  0  0
   15.3270   38.4080    6.6780 C   0  0  0  0  0
   16.5960   38.9150    6.9680 O   0  0  0  0  0
   11.1810   36.0150    8.4930 N   0  0  0  0  0
   11.3790   35.7640    9.9300 C   0  0  0  0  0
   12.8560   35.6610   10.2360 C   0  0  0  0  0
   13.4860   34.6850    9.8380 O   0  0  0  0  0
   10.7320   34.4350   10.3420 C   0  0  0  0  0
    9.2290   34.4820   10.4580 C   0  0  0  0  0
    8.4570   35.2620    9.5900 C   0  0  0  0  0
    8.5770   33.7040   11.4060 C   0  0  0  0  0
    7.0640   35.2640    9.6610 C   0  0  0  0  0
    7.1760   33.7010   11.4820 C   0  0  0  0  0
    6.4200   34.4890   10.6000 C   0  0  0  0  0
   13.4190   36.6290   10.9520 N   0  0  0  0  0
   14.8540   36.5470   11.2360 C   0  0  0  0  0
   15.1820   35.3240   12.0670 C   0  0  0  0  0
   14.8380   35.2590   13.2410 O   0  0  0  0  0
   15.3620   37.7990   11.9610 C   0  0  0  0  0
   15.9780   38.8620   11.0520 C   0  0  0  0  0
   16.4440   40.0530   11.8650 C   0  0  0  0  0
   15.2830   40.6940   12.6360 C   0  0  0  0  0
   15.7040   41.6150   13.7500 N   0  3  0  0  0
   15.8540   34.3550   11.4580 N   0  0  0  0  0
   16.2210   33.1360   12.1690 C   0  0  0  0  0
   16.9570   33.4700   13.4640 C   0  0  0  0  0
   17.0270   34.6250   13.8750 O   0  0  0  0  0
   17.0880   32.2420   11.2780 C   0  0  0  0  0
   17.5050   32.4540   14.1120 N   0  0  0  0  0
   18.2150   32.6760   15.3580 C   0  0  0  0  0
   19.4540   31.8190   15.4120 C   0  0  0  0  0
   19.5350   30.7810   14.7440 O   0  0  0  0  0
   17.3120   32.3600   16.5400 C   0  0  0  0  0
   20.4160   32.2630   16.2160 N   0  0  0  0  0
   21.6630   31.5360   16.3640 C   0  0  0  0  0
   21.5980   30.6430   17.5820 C   0  0  0  0  0
   21.3360   31.0960   18.6990 O   0  0  0  0  0
   22.8710   32.4740   16.5080 C   0  0  0  0  0
   22.9050   33.3970   15.4080 O   0  0  0  0  0
   24.1600   31.6520   16.5160 C   0  0  0  0  0
   21.8380   29.3610   17.3390 N   0  0  0  0  0
   21.8030   28.3460   18.3770 C   0  0  0  0  0
   23.2110   28.1690   18.8960 C   0  0  0  0  0
   24.0290   27.5010   18.2710 O   0  0  0  0  0
   21.2650   27.0270   17.7950 C   0  0  0  0  0
   19.9970   27.2230   16.9350 C   0  0  0  0  0
   19.1500   25.9580   16.7500 C   0  0  0  0  0
   17.8550   26.2880   15.9970 C   0  0  0  0  0
   16.8470   25.1990   16.0710 N   0  3  0  0  0
   23.4930   28.7860   20.0360 N   0  0  0  0  0
   24.8190   28.6940   20.6200 C   0  0  0  0  0
   25.0660   27.2860   21.1410 C   0  0  0  0  0
   24.0720   26.5420   21.2840 O   0  0  0  0  0
   24.9670   29.7100   21.7570 C   0  0  0  0  0
   24.7090   31.1320   21.3380 C   0  0  0  0  0
   23.3950   31.6000   21.1720 C   0  0  0  0  0
   25.7790   32.0030   21.0840 C   0  0  0  0  0
   23.1390   32.9310   20.7550 C   0  0  0  0  0
   25.5450   33.3330   20.6660 C   0  0  0  0  0
   24.2160   33.8010   20.5010 C   0  0  0  0  0
   26.2430   26.9510   21.4000 O   0  0  0  0  0
    1.5892   46.2061   -3.5202 H   0  0  0  0  0
    2.5662   47.1217   -4.5122 H   0  0  0  0  0
    1.2937   46.2619   -5.1592 H   0  0  0  0  0
    2.3337   44.1679   -4.5840 H   0  0  0  0  0
    4.1693   46.0711   -6.1110 H   0  0  0  0  0
    4.2231   44.2925   -6.1787 H   0  0  0  0  0
    2.8026   45.1648   -6.8050 H   0  0  0  0  0
    2.6720   45.8867   -2.2304 H   0  0  0  0  0
    5.3688   46.3201   -1.6623 H   0  0  0  0  0
    3.7581   45.4784    0.6934 H   0  0  0  0  0
    2.9922   46.7518   -0.3439 H   0  0  0  0  0
    5.4875   46.0756    1.7333 H   0  0  0  0  0
    6.7998   45.5508   -0.1575 H   0  0  0  0  0
    7.6518   42.9568   -0.7815 H   0  0  0  0  0
    8.2292   44.6922    1.6137 H   0  0  0  0  0
    9.1262   44.6543   -0.0869 H   0  0  0  0  0
   10.6444   44.0090    1.5516 H   0  0  0  0  0
    9.0629   43.6016    3.3781 H   0  0  0  0  0
    8.4778   42.1355    2.5538 H   0  0  0  0  0
   10.1525   42.2109    3.1547 H   0  0  0  0  0
    9.4180   41.5820    0.2285 H   0  0  0  0  0
   10.5994   42.6999   -0.4966 H   0  0  0  0  0
   11.0642   41.6951    0.8982 H   0  0  0  0  0
    8.0382   41.1309    0.2434 H   0  0  0  0  0
    5.8896   40.2523    2.1420 H   0  0  0  0  0
    7.6097   38.9712    0.0202 H   0  0  0  0  0
    4.7294   38.7169    0.8841 H   0  0  0  0  0
    5.5228   37.8467   -0.5319 H   0  0  0  0  0
    8.1520   37.6778    2.0101 H   0  0  0  0  0
    6.4196   37.4694    2.3660 H   0  0  0  0  0
    7.1234   36.7331    0.9054 H   0  0  0  0  0
    5.0989   40.8005   -0.2290 H   0  0  0  0  0
    5.8661   39.9590   -1.5982 H   0  0  0  0  0
    4.1407   39.6956   -1.2450 H   0  0  0  0  0
    6.6407   40.7136    4.2245 H   0  0  0  0  0
    9.4696   40.5825    4.8387 H   0  0  0  0  0
    7.9634   42.0913    6.0619 H   0  0  0  0  0
    7.0453   40.6966    6.6806 H   0  0  0  0  0
    8.7332   40.9479    7.1893 H   0  0  0  0  0
   10.6378   39.1905    6.1514 H   0  0  0  0  0
    9.3593   36.5049    6.2528 H   0  0  0  0  0
   11.3013   36.7927    4.7441 H   0  0  0  0  0
   11.5773   35.5554    6.1059 H   0  0  0  0  0
   13.6612   35.4584    6.9224 H   0  0  0  0  0
   12.2403   39.2291    5.4335 H   0  0  0  0  0
   15.8782   36.4548    7.3841 H   0  0  0  0  0
   14.4761   40.2492    5.9022 H   0  0  0  0  0
   16.6303   39.8443    6.7295 H   0  0  0  0  0
   11.6939   35.4466    7.8190 H   0  0  0  0  0
   10.9239   36.5900   10.4765 H   0  0  0  0  0
   11.1208   34.1827   11.3285 H   0  0  0  0  0
   10.9698   33.7093    9.5643 H   0  0  0  0  0
    8.9544   35.8807    8.8431 H   0  0  0  0  0
    9.1577   33.0915   12.0957 H   0  0  0  0  0
    6.4846   35.8794    8.9728 H   0  0  0  0  0
    6.6734   33.0852   12.2278 H   0  0  0  0  0
    5.3315   34.4876   10.6578 H   0  0  0  0  0
   12.8638   37.4123   11.2964 H   0  0  0  0  0
   15.3568   36.4713   10.2718 H   0  0  0  0  0
   16.1474   37.4726   12.6427 H   0  0  0  0  0
   14.4984   38.2573   12.4430 H   0  0  0  0  0
   15.2256   39.1948   10.3370 H   0  0  0  0  0
   16.8346   38.4308   10.5339 H   0  0  0  0  0
   16.8588   40.7959   11.1837 H   0  0  0  0  0
   17.1893   39.7113   12.5832 H   0  0  0  0  0
   14.7164   39.8818   13.0914 H   0  0  0  0  0
   14.7199   41.2948   11.9219 H   0  0  0  0  0
   14.8750   41.9952   14.2068 H   0  0  0  0  0
   16.2590   41.0940   14.4289 H   0  0  0  0  0
   16.2622   42.3777   13.3664 H   0  0  0  0  0
   16.1175   34.4646   10.4787 H   0  0  0  0  0
   15.3084   32.5965   12.4223 H   0  0  0  0  0
   16.5307   31.9767   10.3796 H   0  0  0  0  0
   17.9947   32.7789   10.9993 H   0  0  0  0  0
   17.3536   31.3362   11.8231 H   0  0  0  0  0
   17.4278   31.5100   13.7334 H   0  0  0  0  0
   18.5096   33.7242   15.4093 H   0  0  0  0  0
   16.4347   33.0062   16.5083 H   0  0  0  0  0
   16.9989   31.3173   16.4878 H   0  0  0  0  0
   17.8574   32.5309   17.4681 H   0  0  0  0  0
   20.2749   33.1285   16.7369 H   0  0  0  0  0
   21.7948   30.9443   15.4581 H   0  0  0  0  0
   22.7830   33.0274   17.4429 H   0  0  0  0  0
   23.6617   33.9798   15.5041 H   0  0  0  0  0
   24.1398   30.9550   17.3538 H   0  0  0  0  0
   24.2411   31.0966   15.5816 H   0  0  0  0  0
   25.0150   32.3203   16.6183 H   0  0  0  0  0
   22.0560   29.0767   16.3840 H   0  0  0  0  0
   21.1438   28.6454   19.1919 H   0  0  0  0  0
   21.0040   26.3765   18.6298 H   0  0  0  0  0
   22.0397   26.6049   17.1549 H   0  0  0  0  0
   20.3292   27.5315   15.9437 H   0  0  0  0  0
   19.3720   27.9520   17.4509 H   0  0  0  0  0
   18.8978   25.5528   17.7299 H   0  0  0  0  0
   19.7204   25.2296   16.1736 H   0  0  0  0  0
   18.1093   26.4344   14.9472 H   0  0  0  0  0
   17.4200   27.1751   16.4574 H   0  0  0  0  0
   16.0118   25.4748   15.5545 H   0  0  0  0  0
   17.2358   24.3491   15.6624 H   0  0  0  0  0
   16.6039   25.0281   17.0467 H   0  0  0  0  0
   22.7707   29.3307   20.5071 H   0  0  0  0  0
   25.5573   28.9183   19.8501 H   0  0  0  0  0
   25.9973   29.6566   22.1087 H   0  0  0  0  0
   24.2289   29.4563   22.5178 H   0  0  0  0  0
   22.5584   30.9291   21.3669 H   0  0  0  0  0
   26.8025   31.6502   21.2104 H   0  0  0  0  0
   22.1133   33.2786   20.6318 H   0  0  0  0  0
   26.3856   33.9988   20.4705 H   0  0  0  0  0
   24.0304   34.8260   20.1801 H   0  0  0  0  0
   26.8322   27.6852   21.2120 H   0  0  0  0  0
  1  2  1  0  0  0
  2  3  1  0  0  0
  2  5  1  0  0  0
  3  4  2  0  0  0
  3  6  1  0  0  0
  6  7  1  0  0  0
  7  8  1  0  0  0
  7 10  1  0  0  0
  8  9  2  0  0  0
  8 14  1  0  0  0
 10 11  1  0  0  0
 11 12  1  0  0  0
 11 13  2  0  0  0
 14 15  1  0  0  0
 15 16  1  0  0  0
 15 18  1  0  0  0
 16 17  2  0  0  0
 16 22  1  0  0  0
 18 19  1  0  0  0
 19 20  1  0  0  0
 19 21  1  0  0  0
 22 23  1  0  0  0
 23 24  1  0  0  0
 23 26  1  0  0  0
 24 25  2  0  0  0
 24 30  1  0  0  0
 26 27  1  0  0  0
 26 28  1  0  0  0
 27 29  1  0  0  0
 30 31  1  0  0  0
 31 32  1  0  0  0
 31 34  1  0  0  0
 32 33  2  0  0  0
 32 35  1  0  0  0
 35 36  1  0  0  0
 36 37  1  0  0  0
 36 39  1  0  0  0
 37 38  2  0  0  0
 37 47  1  0  0  0
 39 40  1  0  0  0
 40 41  4  0  0  0
 40 42  4  0  0  0
 41 43  4  0  0  0
 42 44  4  0  0  0
 43 45  4  0  0  0
 44 45  4  0  0  0
 45 46  1  0  0  0
 47 48  1  0  0  0
 48 49  1  0  0  0
 48 51  1  0  0  0
 49 50  2  0  0  0
 49 58  1  0  0  0
 51 52  1  0  0  0
 52 53  4  0  0  0
 52 54  4  0  0  0
 53 55  4  0  0  0
 54 56  4  0  0  0
 55 57  4  0  0  0
 56 57  4  0  0  0
 58 59  1  0  0  0
 59 60  1  0  0  0
 59 62  1  0  0  0
 60 61  2  0  0  0
 60 67  1  0  0  0
 62 63  1  0  0  0
 63 64  1  0  0  0
 64 65  1  0  0  0
 65 66  1  0  0  0
 67 68  1  0  0  0
 68 69  1  0  0  0
 68 71  1  0  0  0
 69 70  2  0  0  0
 69 72  1  0  0  0
 72 73  1  0  0  0
 73 74  1  0  0  0
 73 76  1  0  0  0
 74 75  2  0  0  0
 74 77  1  0  0  0
 77 78  1  0  0  0
 78 79  1  0  0  0
 78 81  1  0  0  0
 79 80  2  0  0  0
 79 84  1  0  0  0
 81 82  1  0  0  0
 81 83  1  0  0  0
 84 85  1  0  0  0
 85 86  1  0  0  0
 85 88  1  0  0  0
 86 87  2  0  0  0
 86 93  1  0  0  0
 88 89  1  0  0  0
 89 90  1  0  0  0
 90 91  1  0  0  0
 91 92  1  0  0  0
 93 94  1  0  0  0
 94 95  1  0  0  0
 94 97  1  0  0  0
 95 96  2  0  0  0
 95104  1  0  0  0
 97 98  1  0  0  0
 98 99  4  0  0  0
 98100  4  0  0  0
 99101  4  0  0  0
100102  4  0  0  0
101103  4  0  0  0
102103  4  0  0  0
  1105  1  0  0  0
  1106  1  0  0  0
  1107  1  0  0  0
  2108  1  0  0  0
  5109  1  0  0  0
  5110  1  0  0  0
  5111  1  0  0  0
  6112  1  0  0  0
  7113  1  0  0  0
 10114  1  0  0  0
 10115  1  0  0  0
 12116  1  0  0  0
 14117  1  0  0  0
 15118  1  0  0  0
 18119  1  0  0  0
 18120  1  0  0  0
 19121  1  0  0  0
 20122  1  0  0  0
 20123  1  0  0  0
 20124  1  0  0  0
 21125  1  0  0  0
 21126  1  0  0  0
 21127  1  0  0  0
 22128  1  0  0  0
 23129  1  0  0  0
 26130  1  0  0  0
 27131  1  0  0  0
 27132  1  0  0  0
 28133  1  0  0  0
 28134  1  0  0  0
 28135  1  0  0  0
 29136  1  0  0  0
 29137  1  0  0  0
 29138  1  0  0  0
 30139  1  0  0  0
 31140  1  0  0  0
 34141  1  0  0  0
 34142  1  0  0  0
 34143  1  0  0  0
 35144  1  0  0  0
 36145  1  0  0  0
 39146  1  0  0  0
 39147  1  0  0  0
 41148  1  0  0  0
 42149  1  0  0  0
 43150  1  0  0  0
 44151  1  0  0  0
 46152  1  0  0  0
 47153  1  0  0  0
 48154  1  0  0  0
 51155  1  0  0  0
 51156  1  0  0  0
 53157  1  0  0  0
 54158  1  0  0  0
 55159  1  0  0  0
 56160  1  0  0  0
 57161  1  0  0  0
 58162  1  0  0  0
 59163  1  0  0  0
 62164  1  0  0  0
 62165  1  0  0  0
 63166  1  0  0  0
 63167  1  0  0  0
 64168  1  0  0  0
 64169  1  0  0  0
 65170  1  0  0  0
 65171  1  0  0  0
 66172  1  0  0  0
 66173  1  0  0  0
 66174  1  0  0  0
 67175  1  0  0  0
 68176  1  0  0  0
 71177  1  0  0  0
 71178  1  0  0  0
 71179  1  0  0  0
 72180  1  0  0  0
 73181  1  0  0  0
 76182  1  0  0  0
 76183  1  0  0  0
 76184  1  0  0  0
 77185  1  0  0  0
 78186  1  0  0  0
 81187  1  0  0  0
 82188  1  0  0  0
 83189  1  0  0  0
 83190  1  0  0  0
 83191  1  0  0  0
 84192  1  0  0  0
 85193  1  0  0  0
 88194  1  0  0  0
 88195  1  0  0  0
 89196  1  0  0  0
 89197  1  0  0  0
 90198  1  0  0  0
 90199  1  0  0  0
 91200  1  0  0  0
 91201  1  0  0  0
 92202  1  0  0  0
 92203  1  0  0  0
 92204  1  0  0  0
 93205  1  0  0  0
 94206  1  0  0  0
 97207  1  0  0  0
 97208  1  0  0  0
 99209  1  0  0  0
100210  1  0  0  0
101211  1  0  0  0
102212  1  0  0  0
103213  1  0  0  0
104214  1  0  0  0
M  END
$$$$
