2i4p_ligand
  -I-interpret- 

 69 71  0  0  0  0  0  0  0  0999 V2000
   19.9570   20.9670   17.2010 C   0  0  0  0  0
   19.0550   19.9690   17.9360 C   0  0  0  0  0
   19.8090   18.7160   18.3920 C   0  0  0  0  0
   18.9360   17.9330   19.3800 C   0  0  0  0  0
   19.4040   17.6920   20.5030 O   0  0  0  0  0
   17.7790   17.6120   18.9950 O   0  0  0  0  0
   21.0940   19.1130   19.1230 C   0  0  0  0  0
   20.2170   17.9380   17.2560 O   0  0  0  0  0
   19.3900   17.1840   16.4650 C   0  0  0  0  0
   18.3430   16.4410   16.9850 C   0  0  0  0  0
   17.5640   15.6260   16.1510 C   0  0  0  0  0
   19.6490   17.1360   15.1040 C   0  0  0  0  0
   18.8730   16.3230   14.2660 C   0  0  0  0  0
   17.8350   15.5780   14.7930 C   0  0  0  0  0
   17.0370   14.6420   13.8650 C   0  0  0  0  0
   15.5210   14.7040   14.0440 C   0  0  0  0  0
   14.8500   15.8340   13.3700 N   0  0  0  0  0
   13.3900   15.7750   13.2080 C   0  0  0  0  0
   12.7020   15.1560   14.4280 C   0  0  0  0  0
   11.2420   14.8350   14.1190 C   0  0  0  0  0
   10.5970   14.3020   15.4000 C   0  0  0  0  0
    9.1610   13.8240   15.1880 C   0  0  0  0  0
    8.5480   13.4210   16.5270 C   0  0  0  0  0
    9.4180   12.3890   17.2580 C   0  0  0  0  0
   15.4700   16.7130   12.5870 C   0  0  0  0  0
   16.7540   16.6140   12.1140 O   0  0  0  0  0
   16.8900   17.6190   11.1970 C   0  0  0  0  0
   17.9280   17.9980   10.3620 C   0  0  0  0  0
   17.7640   19.0650    9.4830 C   0  0  0  0  0
   16.5510   19.7590    9.4430 C   0  0  0  0  0
   15.5130   19.3780   10.2800 C   0  0  0  0  0
   15.6760   18.3100   11.1550 C   0  0  0  0  0
   14.8440   17.7310   12.0150 N   0  0  0  0  0
   20.7622   21.2837   17.8640 H   0  0  0  0  0
   20.3793   20.4901   16.3165 H   0  0  0  0  0
   19.3687   21.8344   16.9017 H   0  0  0  0  0
   18.2710   19.6557   17.2467 H   0  0  0  0  0
   18.6611   20.4643   18.8235 H   0  0  0  0  0
   17.6507   17.9068   18.0904 H   0  0  0  0  0
   21.6261   18.2140   19.4340 H   0  0  0  0  0
   21.7255   19.6973   18.4538 H   0  0  0  0  0
   20.8422   19.7094   20.0000 H   0  0  0  0  0
   18.1227   16.4902   18.0514 H   0  0  0  0  0
   16.7499   15.0336   16.5687 H   0  0  0  0  0
   20.4588   17.7325   14.6839 H   0  0  0  0  0
   19.0884   16.2784   13.1984 H   0  0  0  0  0
   17.3428   13.6233   14.1035 H   0  0  0  0  0
   17.2483   14.9543   12.8423 H   0  0  0  0  0
   15.3381   14.8250   15.1117 H   0  0  0  0  0
   15.1175   13.7933   13.6014 H   0  0  0  0  0
   13.1682   15.1540   12.3401 H   0  0  0  0  0
   13.0190   16.7928   13.0874 H   0  0  0  0  0
   12.7394   15.8679   15.2526 H   0  0  0  0  0
   13.2174   14.2327   14.6925 H   0  0  0  0  0
   11.1788   14.0899   13.3260 H   0  0  0  0  0
   10.7222   15.7306   13.7788 H   0  0  0  0  0
   10.5735   15.1159   16.1246 H   0  0  0  0  0
   11.1852   13.4493   15.7392 H   0  0  0  0  0
    9.1623   12.9639   14.5184 H   0  0  0  0  0
    8.5731   14.6309   14.7504 H   0  0  0  0  0
    7.5707   12.9765   16.3388 H   0  0  0  0  0
    8.4699   14.3106   17.1520 H   0  0  0  0  0
    9.5161   11.4960   16.6408 H   0  0  0  0  0
   10.4044   12.8138   17.4441 H   0  0  0  0  0
    8.9491   12.1270   18.2064 H   0  0  0  0  0
   18.8753   17.4597   10.3932 H   0  0  0  0  0
   18.5819   19.3596    8.8255 H   0  0  0  0  0
   16.4217   20.5960    8.7568 H   0  0  0  0  0
   14.5663   19.9176   10.2518 H   0  0  0  0  0
  1  2  1  0  0  0
  2  3  1  0  0  0
  3  4  1  0  0  0
  3  7  1  0  0  0
  3  8  1  0  0  0
  4  5  2  0  0  0
  4  6  1  0  0  0
  8  9  1  0  0  0
  9 10  4  0  0  0
  9 12  4  0  0  0
 10 11  4  0  0  0
 11 14  4  0  0  0
 12 13  4  0  0  0
 13 14  4  0  0  0
 14 15  1  0  0  0
 15 16  1  0  0  0
 16 17  1  0  0  0
 17 18  1  0  0  0
 17 25  1  0  0  0
 18 19  1  0  0  0
 19 20  1  0  0  0
 20 21  1  0  0  0
 21 22  1  0  0  0
 22 23  1  0  0  0
 23 24  1  0  0  0
 25 26  4  0  0  0
 25 33  4  0  0  0
 26 27  4  0  0  0
 27 28  4  0  0  0
 27 32  4  0  0  0
 28 29  4  0  0  0
 29 30  4  0  0  0
 30 31  4  0  0  0
 31 32  4  0  0  0
 32 33  4  0  0  0
  1 34  1  0  0  0
  1 35  1  0  0  0
  1 36  1  0  0  0
  2 37  1  0  0  0
  2 38  1  0  0  0
  6 39  1  0  0  0
  7 40  1  0  0  0
  7 41  1  0  0  0
  7 42  1  0  0  0
 10 43  1  0  0  0
 11 44  1  0  0  0
 12 45  1  0  0  0
 13 46  1  0  0  0
 15 47  1  0  0  0
 15 48  1  0  0  0
 16 49  1  0  0  0
 16 50  1  0  0  0
 18 51  1  0  0  0
 18 52  1  0  0  0
 19 53  1  0  0  0
 19 54  1  0  0  0
 20 55  1  0  0  0
 20 56  1  0  0  0
 21 57  1  0  0  0
 21 58  1  0  0  0
 22 59  1  0  0  0
 22 60  1  0  0  0
 23 61  1  0  0  0
 23 62  1  0  0  0
 24 63  1  0  0  0
 24 64  1  0  0  0
 24 65  1  0  0  0
 28 66  1  0  0  0
 29 67  1  0  0  0
 30 68  1  0  0  0
 31 69  1  0  0  0
M  END
$$$$
