2ra0_ligand
  -I-interpret- 

 62 67  0  0  0  0  0  0  0  0999 V2000
   43.9070   51.2840   24.4330 C   0  0  0  0  0
   43.3570   50.5290   23.3490 C   0  0  0  0  0
   42.3530   50.7490   22.3340 C   0  0  0  0  0
   44.2490   53.1180   25.9430 N   0  0  0  0  0
   44.0370   49.2880   23.3870 C   0  0  0  0  0
   41.7550   45.1730   18.7260 C   0  0  0  0  0
   42.9750   45.8850   18.5390 C   0  0  0  0  0
   43.3080   46.9630   19.4140 C   0  0  0  0  0
   42.4380   47.3580   20.4880 C   0  0  0  0  0
   41.2190   46.6270   20.6500 C   0  0  0  0  0
   40.8840   45.5590   19.7890 C   0  0  0  0  0
   40.4510   44.0180   16.8200 C   0  0  0  0  0
   41.2780   42.0460   17.0630 C   0  0  0  0  0
   41.8790   42.8110   18.0180 C   0  0  0  0  0
   40.8700   46.3960   14.5900 C   0  0  0  0  0
   43.5490   52.6610   24.8590 C   0  0  0  0  0
   46.0410   46.3770   26.5150 C   0  0  0  0  0
   45.2260   47.4270   25.9960 C   0  0  0  0  0
   47.1000   48.1230   24.5260 C   0  0  0  0  0
   45.9170   45.3320   27.4680 C   0  0  0  0  0
   44.8600   50.5690   25.0910 N   0  0  0  0  0
   44.9260   49.3580   24.4540 N   0  0  0  0  0
   42.0540   49.7140   21.3900 C   0  0  0  0  0
   42.7410   48.4580   21.4350 C   0  0  0  0  0
   43.7350   48.2620   22.4420 C   0  0  0  0  0
   44.3790   47.0830   22.4890 F   0  0  0  0  0
   44.4740   47.6020   19.2050 F   0  0  0  0  0
   41.3700   44.0850   17.8910 N   0  0  0  0  0
   40.4060   42.7850   16.3310 N   0  0  0  0  0
   39.6250   45.1900   16.2980 C   0  0  0  0  0
   40.4150   46.4210   15.9920 N   0  3  0  0  0
   39.6070   47.6300   16.2050 C   0  0  0  0  0
   42.6960   53.3650   24.3130 O   0  0  0  0  0
   45.7530   48.3080   24.9970 C   0  0  0  0  0
   47.9310   47.0740   25.0380 C   0  0  0  0  0
   47.3480   46.2340   26.0270 C   0  0  0  0  0
   47.9370   45.1790   26.6530 O   0  0  0  0  0
   47.0430   44.6110   27.5580 N   0  0  0  0  0
   44.8120   45.1060   28.1820 N   0  0  0  0  0
   41.8239   51.7008   22.2865 H   0  0  0  0  0
   44.0682   54.0524   26.3099 H   0  0  0  0  0
   44.9514   52.5241   26.3839 H   0  0  0  0  0
   43.6517   45.6077   17.7308 H   0  0  0  0  0
   40.5353   46.8998   21.4539 H   0  0  0  0  0
   39.9473   45.0219   19.9382 H   0  0  0  0  0
   41.4715   40.9845   16.9082 H   0  0  0  0  0
   42.6209   42.4782   18.7438 H   0  0  0  0  0
   41.4966   45.5189   14.4283 H   0  0  0  0  0
   40.0043   46.3525   13.9291 H   0  0  0  0  0
   41.4443   47.2982   14.3796 H   0  0  0  0  0
   44.2064   47.5582   26.3583 H   0  0  0  0  0
   47.4963   48.7945   23.7643 H   0  0  0  0  0
   41.2939   49.8844   20.6276 H   0  0  0  0  0
   38.9162   45.4540   17.0829 H   0  0  0  0  0
   39.1675   44.8653   15.3635 H   0  0  0  0  0
   41.2187   46.4399   16.6198 H   0  0  0  0  0
   40.2129   48.5118   15.9965 H   0  0  0  0  0
   38.7462   47.6126   15.5365 H   0  0  0  0  0
   39.2647   47.6591   17.2395 H   0  0  0  0  0
   48.9532   46.9278   24.6890 H   0  0  0  0  0
   43.9936   45.7019   28.0575 H   0  0  0  0  0
   44.7861   44.3375   28.8521 H   0  0  0  0  0
  2  1  4  0  0  0
  1 16  1  0  0  0
 21  1  4  0  0  0
  3  2  4  0  0  0
  5  2  4  0  0  0
 23  3  4  0  0  0
 16  4  1  0  0  0
  5 22  4  0  0  0
 25  5  4  0  0  0
  6  7  4  0  0  0
  6 11  4  0  0  0
 28  6  1  0  0  0
  7  8  4  0  0  0
  8  9  4  0  0  0
  8 27  1  0  0  0
 10  9  4  0  0  0
  9 24  1  0  0  0
 11 10  4  0  0  0
 12 28  4  0  0  0
 12 29  4  0  0  0
 30 12  1  0  0  0
 13 14  4  0  0  0
 29 13  4  0  0  0
 28 14  4  0  0  0
 31 15  1  0  0  0
 16 33  2  0  0  0
 18 17  4  0  0  0
 17 20  4  0  0  0
 17 36  4  0  0  0
 34 18  4  0  0  0
 34 19  4  0  0  0
 19 35  4  0  0  0
 20 38  4  0  0  0
 20 39  1  0  0  0
 22 21  4  0  0  0
 22 34  1  0  0  0
 24 23  4  0  0  0
 24 25  4  0  0  0
 25 26  1  0  0  0
 30 31  1  0  0  0
 31 32  1  0  0  0
 35 36  4  0  0  0
 36 37  4  0  0  0
 37 38  4  0  0  0
  3 40  1  0  0  0
  4 41  1  0  0  0
  4 42  1  0  0  0
  7 43  1  0  0  0
 10 44  1  0  0  0
 11 45  1  0  0  0
 13 46  1  0  0  0
 14 47  1  0  0  0
 15 48  1  0  0  0
 15 49  1  0  0  0
 15 50  1  0  0  0
 18 51  1  0  0  0
 19 52  1  0  0  0
 23 53  1  0  0  0
 30 54  1  0  0  0
 30 55  1  0  0  0
 31 56  1  0  0  0
 32 57  1  0  0  0
 32 58  1  0  0  0
 32 59  1  0  0  0
 35 60  1  0  0  0
 39 61  1  0  0  0
 39 62  1  0  0  0
M  END
$$$$
