2xxr_ligand
  -I-interpret- 

 20 19  0  0  0  0  0  0  0  0999 V2000
  -28.4680   34.6740    7.9860 N   0  3  0  0  0
  -28.3070   35.4310    6.7400 C   0  0  0  0  0
  -29.4270   36.4460    6.5720 C   0  0  0  0  0
  -30.1580   36.7690    7.5260 O   0  0  0  0  0
  -28.2140   34.4990    5.5230 C   0  0  0  0  0
  -26.8610   33.7830    5.4110 C   0  0  0  0  0
  -25.7330   34.7280    5.0260 C   0  0  0  0  0
  -26.0360   35.7930    4.4330 O   0  0  0  0  0
  -24.5430   34.3740    5.2600 O   0  0  0  0  0
  -29.5940   36.9880    5.4790 O   0  0  0  0  0
  -28.5262   35.3224    8.7712 H   0  0  0  0  0
  -29.3226   34.1194    7.9374 H   0  0  0  0  0
  -27.6667   34.0557    8.1127 H   0  0  0  0  0
  -27.3657   35.9768    6.8041 H   0  0  0  0  0
  -29.9086   36.2647    8.3039 H   0  0  0  0  0
  -28.3392   35.1099    4.6290 H   0  0  0  0  0
  -28.9837   33.7350    5.6327 H   0  0  0  0  0
  -26.9450   33.0244    4.6328 H   0  0  0  0  0
  -26.6245   33.3559    6.3856 H   0  0  0  0  0
  -24.5456   33.5318    5.7207 H   0  0  0  0  0
  1  2  1  0  0  0
  2  3  1  0  0  0
  2  5  1  0  0  0
  3  4  1  0  0  0
  3 10  2  0  0  0
  5  6  1  0  0  0
  6  7  1  0  0  0
  7  8  2  0  0  0
  7  9  1  0  0  0
  1 11  1  0  0  0
  1 12  1  0  0  0
  1 13  1  0  0  0
  2 14  1  0  0  0
  4 15  1  0  0  0
  5 16  1  0  0  0
  5 17  1  0  0  0
  6 18  1  0  0  0
  6 19  1  0  0  0
  9 20  1  0  0  0
M  END
$$$$
