3qs5_ligand
  -I-interpret- 

 27 28  0  0  0  0  0  0  0  0999 V2000
   26.4420   30.7550   19.7450 N   0  3  0  0  0
   27.7060   30.0770   19.4680 C   0  0  0  0  0
   27.5120   28.9250   18.4660 C   0  0  0  0  0
   28.3750   28.1000   18.1390 O   0  0  0  0  0
   28.3190   29.5820   20.7760 C   0  0  0  0  0
   28.2090   30.5620   21.8910 C   0  0  0  0  0
   27.6010   30.3700   23.0960 C   0  0  0  0  0
   28.7330   31.8890   21.9100 C   0  0  0  0  0
   27.7170   31.4990   23.8680 N   0  0  0  0  0
   28.4090   32.4480   23.1610 C   0  0  0  0  0
   29.4460   32.6610   20.9880 C   0  0  0  0  0
   28.7750   33.7460   23.5130 C   0  0  0  0  0
   29.8090   33.9470   21.3380 C   0  0  0  0  0
   29.4730   34.4780   22.5890 C   0  0  0  0  0
   26.4200   28.7930   17.9420 O   0  0  0  0  0
   26.0352   31.0843   18.8695 H   0  0  0  0  0
   25.7997   30.1034   20.1958 H   0  0  0  0  0
   26.6116   31.5490   20.3624 H   0  0  0  0  0
   28.3936   30.7864   19.0074 H   0  0  0  0  0
   29.1921   28.2916   18.6051 H   0  0  0  0  0
   29.3799   29.4083   20.5957 H   0  0  0  0  0
   27.7763   28.6848   21.0735 H   0  0  0  0  0
   27.0963   29.4535   23.4018 H   0  0  0  0  0
   29.7105   32.2558   20.0113 H   0  0  0  0  0
   28.5158   34.1627   24.4863 H   0  0  0  0  0
   30.3663   34.5585   20.6284 H   0  0  0  0  0
   29.7735   35.4969   22.8334 H   0  0  0  0  0
  1  2  1  0  0  0
  2  3  1  0  0  0
  2  5  1  0  0  0
  3  4  1  0  0  0
  3 15  2  0  0  0
  5  6  1  0  0  0
  6  7  4  0  0  0
  6  8  4  0  0  0
  7  9  4  0  0  0
  8 10  4  0  0  0
  8 11  4  0  0  0
  9 10  4  0  0  0
 10 12  4  0  0  0
 11 13  4  0  0  0
 12 14  4  0  0  0
 13 14  4  0  0  0
  1 16  1  0  0  0
  1 17  1  0  0  0
  1 18  1  0  0  0
  2 19  1  0  0  0
  4 20  1  0  0  0
  5 21  1  0  0  0
  5 22  1  0  0  0
  7 23  1  0  0  0
 11 24  1  0  0  0
 12 25  1  0  0  0
 13 26  1  0  0  0
 14 27  1  0  0  0
M  END
$$$$
