5k8s_ligand
  -I-interpret- 

 34 37  0  0  0  0  0  0  0  0999 V2000
   19.4600  -18.0760  -18.1420 P   0  0  0  0  0
   19.3110  -16.7860  -18.9740 O   0  0  0  0  0
   20.8040  -18.5290  -17.7540 O   0  0  0  0  0
   18.7590  -19.3010  -18.8960 O   0  0  0  0  0
   18.4550  -20.5120  -18.1930 C   0  0  0  0  0
   17.6860  -20.1180  -16.9770 C   0  0  0  0  0
   17.4520  -21.1730  -16.0380 O   0  0  0  0  0
   18.3670  -19.0960  -16.1230 C   0  0  0  0  0
   18.5180  -17.8520  -16.7970 O   0  0  0  0  0
   17.4730  -19.0890  -14.8840 C   0  0  0  0  0
   16.3300  -18.2730  -15.1040 O   0  0  0  0  0
   16.9970  -20.5610  -14.8530 C   0  0  0  0  0
   17.4630  -21.3200  -13.6820 N   0  0  0  0  0
   16.6820  -22.1140  -12.9030 C   0  0  0  0  0
   17.4280  -22.6630  -11.9330 N   0  0  0  0  0
   18.6910  -22.1980  -12.1180 C   0  0  0  0  0
   19.8220  -22.4480  -11.3880 C   0  0  0  0  0
   20.0010  -23.2660  -10.2450 N   0  0  0  0  0
   20.9880  -21.8740  -11.7510 N   0  0  0  0  0
   21.0040  -21.0490  -12.8500 C   0  0  0  0  0
   19.8850  -20.7740  -13.5890 N   0  0  0  0  0
   18.7290  -21.3730  -13.1950 C   0  0  0  0  0
   18.3807  -16.6235  -19.1465 H   0  0  0  0  0
   19.3670  -21.0436  -17.9213 H   0  0  0  0  0
   17.8737  -21.1895  -18.8184 H   0  0  0  0  0
   16.7697  -19.7573  -17.4442 H   0  0  0  0  0
   19.4033  -19.3130  -15.8638 H   0  0  0  0  0
   17.9731  -18.7264  -13.9859 H   0  0  0  0  0
   15.7785  -18.2782  -14.3183 H   0  0  0  0  0
   15.9096  -20.5623  -14.7784 H   0  0  0  0  0
   15.6139  -22.2792  -13.0447 H   0  0  0  0  0
   19.2088  -23.7752   -9.8531 H   0  0  0  0  0
   20.9221  -23.3457   -9.8141 H   0  0  0  0  0
   21.9490  -20.5937  -13.1462 H   0  0  0  0  0
  1  2  1  0  0  0
  1  3  2  0  0  0
  1  4  1  0  0  0
  1  9  1  0  0  0
  4  5  1  0  0  0
  5  6  1  0  0  0
  6  7  1  0  0  0
  6  8  1  0  0  0
  7 12  1  0  0  0
  8  9  1  0  0  0
  8 10  1  0  0  0
 10 11  1  0  0  0
 10 12  1  0  0  0
 12 13  1  0  0  0
 13 14  4  0  0  0
 13 22  4  0  0  0
 14 15  4  0  0  0
 15 16  4  0  0  0
 16 17  4  0  0  0
 16 22  4  0  0  0
 17 18  1  0  0  0
 17 19  4  0  0  0
 19 20  4  0  0  0
 20 21  4  0  0  0
 21 22  4  0  0  0
  2 23  1  0  0  0
  5 24  1  0  0  0
  5 25  1  0  0  0
  6 26  1  0  0  0
  8 27  1  0  0  0
 10 28  1  0  0  0
 11 29  1  0  0  0
 12 30  1  0  0  0
 14 31  1  0  0  0
 18 32  1  0  0  0
 18 33  1  0  0  0
 20 34  1  0  0  0
M  END
$$$$
