2vip_ligand
  -I-interpret- 

 46 47  0  0  0  0  0  0  0  0999 V2000
   21.7770   10.7610   29.7930 C   0  0  0  0  0
   21.6240   12.1830   29.2780 C   0  0  0  0  0
   20.2380   12.6980   29.6220 C   0  0  0  0  0
   22.5180   13.0810   29.9860 O   0  0  0  0  0
   23.7870   12.6660   30.3040 C   0  0  0  0  0
   24.2050   13.3960   31.4110 C   0  0  0  0  0
   25.4480   13.1740   31.9670 C   0  0  0  0  0
   26.3030   12.2460   31.4060 C   0  0  0  0  0
   25.9140   11.5150   30.2910 C   0  0  0  0  0
   26.8030   10.5670   29.7310 N   0  0  0  0  0
   27.0210   10.3670   28.4210 C   0  0  0  0  0
   26.5120   11.0390   27.5520 O   0  0  0  0  0
   27.9750    9.2760   28.0520 C   0  0  0  0  0
   28.7900    9.5230   26.9540 C   0  0  0  0  0
   29.7070    8.5740   26.5430 C   0  0  0  0  0
   30.7190    8.8960   25.1680 Cl  0  0  0  0  0
   29.8050    7.3560   27.2410 C   0  0  0  0  0
   30.6980    6.3760   26.9120 O   0  0  0  0  0
   31.8140    6.1920   27.8050 C   0  0  0  0  0
   32.3920    4.8070   27.5900 C   0  0  0  0  0
   33.1240    4.6980   26.2990 N   0  3  0  0  0
   28.9960    7.1170   28.3470 C   0  0  0  0  0
   29.1410    5.6270   29.2200 Cl  0  0  0  0  0
   28.0810    8.0790   28.7570 C   0  0  0  0  0
   24.6570   11.7380   29.7380 C   0  0  0  0  0
   22.8044   10.4297   29.6417 H   0  0  0  0  0
   21.5378   10.7332   30.8561 H   0  0  0  0  0
   21.0982   10.1040   29.2492 H   0  0  0  0  0
   21.8238   12.1602   28.2067 H   0  0  0  0  0
   20.0935   12.6554   30.7015 H   0  0  0  0  0
   20.1399   13.7288   29.2815 H   0  0  0  0  0
   19.4889   12.0783   29.1291 H   0  0  0  0  0
   23.5459   14.1492   31.8427 H   0  0  0  0  0
   25.7558   13.7324   32.8511 H   0  0  0  0  0
   27.2895   12.0862   31.8411 H   0  0  0  0  0
   27.3263    9.9818   30.3822 H   0  0  0  0  0
   28.7060   10.4671   26.4157 H   0  0  0  0  0
   31.4806    6.2959   28.8376 H   0  0  0  0  0
   32.5759    6.9447   27.6025 H   0  0  0  0  0
   31.5676    4.0941   27.5738 H   0  0  0  0  0
   33.0958    4.6040   28.3972 H   0  0  0  0  0
   33.4938    3.7528   26.1980 H   0  0  0  0  0
   32.4853    4.8985   25.5294 H   0  0  0  0  0
   33.8928    5.3682   26.2878 H   0  0  0  0  0
   27.4489    7.8979   29.6264 H   0  0  0  0  0
   24.3503   11.1807   28.8529 H   0  0  0  0  0
  1  2  1  0  0  0
  2  3  1  0  0  0
  2  4  1  0  0  0
  4  5  1  0  0  0
  5  6  4  0  0  0
  5 25  4  0  0  0
  6  7  4  0  0  0
  7  8  4  0  0  0
  8  9  4  0  0  0
  9 10  1  0  0  0
  9 25  4  0  0  0
 10 11  1  0  0  0
 11 12  2  0  0  0
 11 13  1  0  0  0
 13 14  4  0  0  0
 13 24  4  0  0  0
 14 15  4  0  0  0
 15 16  1  0  0  0
 15 17  4  0  0  0
 17 18  1  0  0  0
 17 22  4  0  0  0
 18 19  1  0  0  0
 19 20  1  0  0  0
 20 21  1  0  0  0
 22 23  1  0  0  0
 22 24  4  0  0  0
  1 26  1  0  0  0
  1 27  1  0  0  0
  1 28  1  0  0  0
  2 29  1  0  0  0
  3 30  1  0  0  0
  3 31  1  0  0  0
  3 32  1  0  0  0
  6 33  1  0  0  0
  7 34  1  0  0  0
  8 35  1  0  0  0
 10 36  1  0  0  0
 14 37  1  0  0  0
 19 38  1  0  0  0
 19 39  1  0  0  0
 20 40  1  0  0  0
 20 41  1  0  0  0
 21 42  1  0  0  0
 21 43  1  0  0  0
 21 44  1  0  0  0
 24 45  1  0  0  0
 25 46  1  0  0  0
M  END
$$$$
