4zt3_ligand
  -I-interpret- 

 40 42  0  0  0  0  0  0  0  0999 V2000
  128.9930  119.3480  -12.0390 N   0  0  0  0  0
  127.8320  117.4450   -8.3840 N   0  3  0  0  0
  129.1560  121.8320  -14.3840 C   0  0  0  0  0
  129.3310  120.2400  -12.9800 C   0  0  0  0  0
  129.9290  118.4590  -11.3670 C   0  0  0  0  0
  129.2300  117.5000  -10.4270 C   0  0  0  0  0
  128.9290  118.1270   -9.0810 C   0  0  0  0  0
  127.5670  120.5770   -7.2150 C   0  0  0  0  0
  125.5580  121.9180   -7.2820 C   0  0  0  0  0
  130.5200  121.4640  -14.3360 C   0  0  0  0  0
  123.0800  120.8470   -7.4330 Cl  0  0  0  0  0
  124.8200  120.7500   -7.2960 C   0  0  0  0  0
  126.9340  121.8030   -7.2590 C   0  0  0  0  0
  127.9030  123.2440   -7.3560 Cl  0  0  0  0  0
  125.4200  119.5050   -7.2560 C   0  0  0  0  0
  126.8090  119.4100   -7.2080 C   0  0  0  0  0
  127.4890  118.0660   -7.0990 C   0  0  0  0  0
  128.4170  121.0350  -13.5130 N   0  0  0  0  0
  130.5940  120.4330  -13.4280 N   0  0  0  0  0
  131.5220  122.0690  -14.9970 N   0  0  0  0  0
  131.0590  123.1790  -15.7550 C   0  0  0  0  0
  132.0340  123.8470  -16.4140 F   0  0  0  0  0
  128.7950  122.9340  -15.1600 C   0  0  0  0  0
  129.7650  123.6250  -15.8580 C   0  0  0  0  0
  128.0096  119.2878  -11.7748 H   0  0  0  0  0
  128.1329  116.4889   -8.1948 H   0  0  0  0  0
  127.0071  117.4956   -8.9818 H   0  0  0  0  0
  130.6159  119.0693  -10.7807 H   0  0  0  0  0
  130.4464  117.8733  -12.1268 H   0  0  0  0  0
  129.8898  116.6482  -10.2623 H   0  0  0  0  0
  128.2835  117.2103  -10.8833 H   0  0  0  0  0
  129.8236  118.0490   -8.4631 H   0  0  0  0  0
  128.6325  119.1625   -9.2481 H   0  0  0  0  0
  128.6553  120.5233   -7.1859 H   0  0  0  0  0
  125.0723  122.8938   -7.2889 H   0  0  0  0  0
  124.8092  118.6022   -7.2620 H   0  0  0  0  0
  128.4254  118.2270   -6.5649 H   0  0  0  0  0
  126.7887  117.3961   -6.6002 H   0  0  0  0  0
  127.7525  123.2476  -15.2148 H   0  0  0  0  0
  129.5128  124.4923  -16.4681 H   0  0  0  0  0
  1  4  1  0  0  0
  5  1  1  0  0  0
  2  7  1  0  0  0
 17  2  1  0  0  0
 10  3  4  0  0  0
 18  3  4  0  0  0
  3 23  4  0  0  0
  4 18  4  0  0  0
  4 19  4  0  0  0
  6  5  1  0  0  0
  7  6  1  0  0  0
  8 13  4  0  0  0
 16  8  4  0  0  0
 12  9  4  0  0  0
 13  9  4  0  0  0
 19 10  4  0  0  0
 10 20  4  0  0  0
 12 11  1  0  0  0
 15 12  4  0  0  0
 13 14  1  0  0  0
 16 15  4  0  0  0
 16 17  1  0  0  0
 20 21  4  0  0  0
 21 22  1  0  0  0
 21 24  4  0  0  0
 23 24  4  0  0  0
  1 25  1  0  0  0
  2 26  1  0  0  0
  2 27  1  0  0  0
  5 28  1  0  0  0
  5 29  1  0  0  0
  6 30  1  0  0  0
  6 31  1  0  0  0
  7 32  1  0  0  0
  7 33  1  0  0  0
  8 34  1  0  0  0
  9 35  1  0  0  0
 15 36  1  0  0  0
 17 37  1  0  0  0
 17 38  1  0  0  0
 23 39  1  0  0  0
 24 40  1  0  0  0
M  END
$$$$
