5eu1_ligand
  -I-interpret- 

 50 52  0  0  0  0  0  0  0  0999 V2000
   11.7300   -7.6310    4.4490 N   0  0  0  0  0
   12.4520   -6.5210    4.5720 C   0  0  0  0  0
   10.4030   -5.2070    4.7670 C   0  0  0  0  0
   11.8300   -5.2760    4.7420 C   0  0  0  0  0
   12.5990   -4.0280    4.8500 C   0  0  0  0  0
    9.7640   -3.8800    4.8910 C   0  0  0  0  0
    6.4220   -2.6060    6.1290 C   0  0  0  0  0
    7.7980   -2.8000    5.9630 C   0  0  0  0  0
    5.9850   -4.2220    4.3810 C   0  0  0  0  0
    5.5200   -3.3070    5.3290 C   0  0  0  0  0
    5.4060   -5.4380    2.3570 C   0  0  0  0  0
    6.8370   -0.7620    7.6570 C   0  0  0  0  0
    8.2830   -3.7070    5.0120 C   0  0  0  0  0
    9.7020   -6.4210    4.6600 C   0  0  0  0  0
   11.9320   -2.8490    4.8750 N   0  0  0  0  0
   10.3980   -7.5940    4.5100 C   0  0  0  0  0
    3.9380   -1.3020    3.8640 C   0  0  0  0  0
    2.0680   -1.7300    5.3210 C   0  0  0  0  0
   10.5700   -2.7800    4.9110 C   0  0  0  0  0
   12.6950   -1.5980    4.9900 C   0  0  0  0  0
    7.3660   -4.4260    4.2210 C   0  0  0  0  0
    4.0210   -3.1340    5.5200 C   0  0  0  0  0
    5.0670   -4.9400    3.6580 O   0  0  0  0  0
    5.9500   -1.7210    7.0540 O   0  0  0  0  0
    3.5370   -1.7770    5.1980 N   0  3  0  0  0
   13.8280   -4.0670    4.8780 O   0  0  0  0  0
   13.5400   -6.5798    4.5403 H   0  0  0  0  0
    8.4999   -2.2393    6.5803 H   0  0  0  0  0
    5.6594   -4.6026    1.7043 H   0  0  0  0  0
    6.2605   -6.1098    2.4378 H   0  0  0  0  0
    4.5549   -5.9788    1.9433 H   0  0  0  0  0
    7.6360   -1.2870    8.1805 H   0  0  0  0  0
    7.2650   -0.1270    6.8813 H   0  0  0  0  0
    6.2796   -0.1480    8.3644 H   0  0  0  0  0
    8.6126   -6.4303    4.6960 H   0  0  0  0  0
    9.8425   -8.5291    4.4381 H   0  0  0  0  0
    3.4902   -1.9406    3.1026 H   0  0  0  0  0
    3.5957   -0.2762    3.7269 H   0  0  0  0  0
    5.0240   -1.3386    3.7780 H   0  0  0  0  0
    1.7258   -0.7042    5.1839 H   0  0  0  0  0
    1.6203   -2.3686    4.5595 H   0  0  0  0  0
    1.7760   -2.0826    6.3102 H   0  0  0  0  0
   10.1025   -1.7965    4.9581 H   0  0  0  0  0
   12.4250   -0.9326    4.1700 H   0  0  0  0  0
   12.4624   -1.1181    5.9407 H   0  0  0  0  0
   13.7614   -1.8188    4.9443 H   0  0  0  0  0
    7.7283   -5.1420    3.4833 H   0  0  0  0  0
    3.8021   -3.3181    6.5718 H   0  0  0  0  0
    3.5230   -3.8279    4.8428 H   0  0  0  0  0
    3.9770   -1.1491    5.8707 H   0  0  0  0  0
  2  1  4  0  0  0
 16  1  4  0  0  0
  4  2  4  0  0  0
  3  4  4  0  0  0
  6  3  1  0  0  0
  3 14  4  0  0  0
  4  5  1  0  0  0
 15  5  1  0  0  0
  5 26  2  0  0  0
 13  6  1  0  0  0
  6 19  2  0  0  0
  7  8  4  0  0  0
 10  7  4  0  0  0
  7 24  1  0  0  0
  8 13  4  0  0  0
 10  9  4  0  0  0
  9 21  4  0  0  0
  9 23  1  0  0  0
 22 10  1  0  0  0
 23 11  1  0  0  0
 24 12  1  0  0  0
 21 13  4  0  0  0
 14 16  4  0  0  0
 19 15  1  0  0  0
 15 20  1  0  0  0
 25 17  1  0  0  0
 25 18  1  0  0  0
 22 25  1  0  0  0
  2 27  1  0  0  0
  8 28  1  0  0  0
 11 29  1  0  0  0
 11 30  1  0  0  0
 11 31  1  0  0  0
 12 32  1  0  0  0
 12 33  1  0  0  0
 12 34  1  0  0  0
 14 35  1  0  0  0
 16 36  1  0  0  0
 17 37  1  0  0  0
 17 38  1  0  0  0
 17 39  1  0  0  0
 18 40  1  0  0  0
 18 41  1  0  0  0
 18 42  1  0  0  0
 19 43  1  0  0  0
 20 44  1  0  0  0
 20 45  1  0  0  0
 20 46  1  0  0  0
 21 47  1  0  0  0
 22 48  1  0  0  0
 22 49  1  0  0  0
 25 50  1  0  0  0
M  END
$$$$
