3daj_ligand
  -I-interpret- 

 53 55  0  0  0  0  0  0  0  0999 V2000
   73.1820   22.8950    7.8020 O   0  0  0  0  0
   72.5920   22.0780    7.1100 C   0  0  0  0  0
   71.2610   21.5100    7.5540 C   0  0  0  0  0
   70.4200   22.5610    8.2730 C   0  0  0  0  0
   69.3260   23.1030    7.3630 C   0  0  0  0  0
   69.7120   24.4670    6.8050 C   0  0  0  0  0
   68.5820   25.0450    5.9640 C   0  0  0  0  0
   68.9530   24.7540    4.5850 N   0  0  0  0  0
   68.1410   25.0770    3.5450 C   0  0  0  0  0
   68.5330   24.7830    2.2450 C   0  0  0  0  0
   67.6800   25.1320    1.2210 C   0  0  0  0  0
   68.2170   24.7710    0.0430 N   0  0  0  0  0
   69.4120   24.1980    0.3300 C   0  0  0  0  0
   69.6080   24.2030    1.6740 N   0  0  0  0  0
   66.4880   25.7390    1.4390 N   0  0  0  0  0
   66.1390   26.0100    2.7080 C   0  0  0  0  0
   66.9440   25.6890    3.7390 N   0  0  0  0  0
   73.0500   21.6220    5.9420 N   0  0  0  0  0
   74.2710   22.0190    5.3660 C   0  0  0  0  0
   74.6090   23.3650    5.2020 C   0  0  0  0  0
   75.8290   23.7220    4.6240 C   0  0  0  0  0
   76.7150   22.7300    4.2020 C   0  0  0  0  0
   76.3820   21.3830    4.3620 C   0  0  0  0  0
   75.1600   21.0330    4.9400 C   0  0  0  0  0
   77.3270   20.3060    3.9100 C   0  0  0  0  0
   78.6230   20.3940    4.2070 O   0  0  0  0  0
   76.8770   19.3250    3.2500 N   0  0  0  0  0
   77.5900   18.4270    2.8590 C   0  0  0  0  0
   78.3080   17.4760    2.4630 C   0  0  0  0  0
   78.3650   16.2320    3.2270 C   0  0  0  0  0
   77.4470   15.2980    3.0480 C   0  0  0  0  0
   71.4483   20.6859    8.2424 H   0  0  0  0  0
   70.7159   21.1744    6.6718 H   0  0  0  0  0
   71.0691   23.3855    8.5679 H   0  0  0  0  0
   69.9533   22.0992    9.1431 H   0  0  0  0  0
   68.4078   23.2071    7.9411 H   0  0  0  0  0
   69.1849   22.4110    6.5327 H   0  0  0  0  0
   70.5955   24.3531    6.1769 H   0  0  0  0  0
   69.9136   25.1430    7.6359 H   0  0  0  0  0
   68.4588   26.1148    6.1325 H   0  0  0  0  0
   67.6187   24.6066    6.2248 H   0  0  0  0  0
   69.8447   24.2963    4.3960 H   0  0  0  0  0
   70.1086   23.7951   -0.4052 H   0  0  0  0  0
   65.1855   26.4993    2.9069 H   0  0  0  0  0
   72.4800   20.9442    5.4360 H   0  0  0  0  0
   73.9161   24.1410    5.5273 H   0  0  0  0  0
   76.0887   24.7736    4.5027 H   0  0  0  0  0
   77.6665   23.0062    3.7477 H   0  0  0  0  0
   74.8992   19.9814    5.0590 H   0  0  0  0  0
   78.8901   17.5788    1.5472 H   0  0  0  0  0
   79.1676   16.0735    3.9473 H   0  0  0  0  0
   76.6435   15.4544    2.3282 H   0  0  0  0  0
   77.4934   14.3714    3.6202 H   0  0  0  0  0
  1  2  2  0  0  0
  2  3  1  0  0  0
  2 18  1  0  0  0
  3  4  1  0  0  0
  4  5  1  0  0  0
  5  6  1  0  0  0
  6  7  1  0  0  0
  7  8  1  0  0  0
  8  9  1  0  0  0
  9 10  4  0  0  0
  9 17  4  0  0  0
 10 11  4  0  0  0
 10 14  4  0  0  0
 11 12  4  0  0  0
 11 15  4  0  0  0
 12 13  4  0  0  0
 13 14  4  0  0  0
 15 16  4  0  0  0
 16 17  4  0  0  0
 18 19  1  0  0  0
 19 20  4  0  0  0
 19 24  4  0  0  0
 20 21  4  0  0  0
 21 22  4  0  0  0
 22 23  4  0  0  0
 23 24  4  0  0  0
 23 25  1  0  0  0
 25 26  2  0  0  0
 25 27  1  0  0  0
 27 28  2  0  0  0
 28 29  2  0  0  0
 29 30  1  0  0  0
 30 31  2  0  0  0
  3 32  1  0  0  0
  3 33  1  0  0  0
  4 34  1  0  0  0
  4 35  1  0  0  0
  5 36  1  0  0  0
  5 37  1  0  0  0
  6 38  1  0  0  0
  6 39  1  0  0  0
  7 40  1  0  0  0
  7 41  1  0  0  0
  8 42  1  0  0  0
 13 43  1  0  0  0
 16 44  1  0  0  0
 18 45  1  0  0  0
 20 46  1  0  0  0
 21 47  1  0  0  0
 22 48  1  0  0  0
 24 49  1  0  0  0
 29 50  1  0  0  0
 30 51  1  0  0  0
 31 52  1  0  0  0
 31 53  1  0  0  0
M  END
$$$$
