3i25_ligand
  -I-interpret- 

118121  0  0  0  0  0  0  0  0999 V2000
    1.9640   19.6660   28.1170 O   0  0  0  0  0
    1.1050   19.1480   28.7640 C   0  0  0  0  0
   -0.1700   19.1880   28.4050 N   0  0  0  0  0
   -0.6730   19.8340   27.2040 C   0  0  0  0  0
   -0.9300   18.7710   26.1540 C   0  0  0  0  0
   -0.2570   18.8160   24.9220 C   0  0  0  0  0
   -0.4660   17.8550   23.9060 C   0  0  0  0  0
   -1.3420   16.8000   24.1480 C   0  0  0  0  0
   -2.0000   16.7160   25.3860 C   0  0  0  0  0
   -1.7840   17.6790   26.3760 C   0  0  0  0  0
   -1.9410   20.5980   27.5960 C   0  0  0  0  0
    1.4920   18.3930   29.9880 C   0  0  0  0  0
    2.7160   17.7420   30.0250 C   0  0  0  0  0
    3.0660   16.9710   31.1380 C   0  0  0  0  0
    4.2930   16.2730   31.2400 N   0  0  0  0  0
    5.0780   15.6170   30.0290 S   0  0  0  0  0
    5.8330   14.5300   30.4760 O   0  0  0  0  0
    6.2800   16.6890   29.5700 C   0  0  0  0  0
    4.2050   15.3090   28.9690 O   0  0  0  0  0
    4.9180   16.1950   32.5870 C   0  0  0  0  0
    2.1730   16.9390   32.2180 C   0  0  0  0  0
    0.5970   18.3460   31.0500 C   0  0  0  0  0
    0.9400   17.5880   32.1580 C   0  0  0  0  0
   -0.0190   17.5770   33.2970 C   0  0  0  0  0
    0.4030   17.7810   34.4230 O   0  0  0  0  0
   -1.3050   17.3810   33.0330 N   0  0  0  0  0
   -2.3860   17.4200   34.0160 C   0  0  0  0  0
   -3.5490   18.0530   33.2280 C   0  0  0  0  0
   -3.2690   19.1660   32.3940 O   0  0  0  0  0
   -2.4180   20.2240   32.6500 C   0  0  0  0  0
   -1.9850   20.9610   31.5560 C   0  0  0  0  0
   -1.1190   22.0270   31.7500 C   0  0  0  0  0
   -0.7270   22.7090   30.6830 F   0  0  0  0  0
   -0.6530   22.3900   33.0200 C   0  0  0  0  0
   -1.0920   21.6640   34.1020 C   0  0  0  0  0
   -0.6590   21.9850   35.3260 F   0  0  0  0  0
   -1.9840   20.5920   33.9360 C   0  0  0  0  0
   -2.8150   16.0140   34.4450 C   0  0  0  0  0
   -3.2920   15.2790   33.3120 O   0  0  0  0  0
   -1.6230   15.2930   35.0190 C   0  0  0  0  0
   -2.0500   14.3690   36.1300 C   0  0  0  0  0
   -0.9580   13.4600   36.1870 O   0  0  0  0  0
   -1.2740   12.2260   36.8180 C   0  0  0  0  0
    0.0130   11.4120   36.7380 C   0  0  0  0  0
    0.3250   10.9840   38.0430 O   0  0  0  0  0
    0.7040   12.0560   38.9400 C   0  0  0  0  0
   -2.1490   15.0960   37.4490 C   0  0  0  0  0
   -1.1780   15.6960   37.8400 O   0  0  0  0  0
   -3.2930   15.0500   38.1270 N   0  0  0  0  0
   -3.3510   15.6930   39.4230 C   0  0  0  0  0
   -4.6600   15.5050   40.2170 C   0  0  0  0  0
   -5.3540   16.8330   40.4880 C   0  0  0  0  0
   -5.5840   14.3330   39.9030 C   0  0  0  0  0
   -2.4350   14.9710   40.3680 C   0  0  0  0  0
   -2.3000   13.7480   40.2920 O   0  0  0  0  0
   -1.8320   15.7110   41.2930 N   0  0  0  0  0
   -0.9330   15.2190   42.3350 C   0  0  0  0  0
    0.3550   15.9660   42.2180 C   0  0  0  0  0
    1.1960   15.7030   41.1490 C   0  0  0  0  0
    2.3960   16.3930   41.0460 C   0  0  0  0  0
    0.6950   16.9150   43.1970 C   0  0  0  0  0
    1.8900   17.6230   43.0980 C   0  0  0  0  0
    2.7330   17.3520   42.0160 C   0  0  0  0  0
   -0.8478   18.7323   29.0160 H   0  0  0  0  0
    0.0391   20.5409   26.7781 H   0  0  0  0  0
    0.4537   19.6227   24.7422 H   0  0  0  0  0
    0.0499   17.9386   22.9495 H   0  0  0  0  0
   -1.5159   16.0445   23.3818 H   0  0  0  0  0
   -2.6864   15.8911   25.5769 H   0  0  0  0  0
   -2.2877   17.5803   27.3376 H   0  0  0  0  0
   -2.3535   21.0909   26.7156 H   0  0  0  0  0
   -2.6741   19.8998   28.0000 H   0  0  0  0  0
   -1.6948   21.3452   28.3504 H   0  0  0  0  0
    3.4058   17.8314   29.1858 H   0  0  0  0  0
    6.9054   16.9223   30.4317 H   0  0  0  0  0
    6.8901   16.2359   28.7886 H   0  0  0  0  0
    5.8240   17.6041   29.1920 H   0  0  0  0  0
    5.0532   15.1493   32.8634 H   0  0  0  0  0
    5.8864   16.6948   32.5663 H   0  0  0  0  0
    4.2709   16.6839   33.3152 H   0  0  0  0  0
    2.4476   16.3962   33.1225 H   0  0  0  0  0
   -0.3471   18.8895   31.0125 H   0  0  0  0  0
   -1.5598   17.1872   32.0645 H   0  0  0  0  0
   -2.0908   17.9538   34.9193 H   0  0  0  0  0
   -4.2376   18.4281   33.9851 H   0  0  0  0  0
   -3.8982   17.2706   32.5543 H   0  0  0  0  0
   -2.3230   20.7039   30.5522 H   0  0  0  0  0
    0.0376   23.2237   33.1469 H   0  0  0  0  0
   -2.3413   20.0431   34.8073 H   0  0  0  0  0
   -3.6091   16.0931   35.1875 H   0  0  0  0  0
   -3.5582   14.3999   33.5912 H   0  0  0  0  0
   -0.9234   16.0273   35.4183 H   0  0  0  0  0
   -1.1514   14.7055   34.2313 H   0  0  0  0  0
   -3.0266   13.9176   35.9550 H   0  0  0  0  0
   -2.1069   11.7203   36.3296 H   0  0  0  0  0
   -1.6033   12.3674   37.8474 H   0  0  0  0  0
    0.8228   12.0181   36.3318 H   0  0  0  0  0
   -0.1183   10.5553   36.0770 H   0  0  0  0  0
    1.5860   12.5619   38.5473 H   0  0  0  0  0
   -0.1180   12.7671   39.0220 H   0  0  0  0  0
    0.9282   11.6429   39.9235 H   0  0  0  0  0
   -4.1091   14.5735   37.7432 H   0  0  0  0  0
   -3.1534   16.7358   39.1748 H   0  0  0  0  0
   -4.2886   15.1117   41.1633 H   0  0  0  0  0
   -4.6915   17.4761   41.0673 H   0  0  0  0  0
   -5.5944   17.3158   39.5408 H   0  0  0  0  0
   -6.2712   16.6543   41.0493 H   0  0  0  0  0
   -5.9127   14.3989   38.8658 H   0  0  0  0  0
   -5.0467   13.3971   40.0564 H   0  0  0  0  0
   -6.4507   14.3683   40.5631 H   0  0  0  0  0
   -2.0134   16.7146   41.2738 H   0  0  0  0  0
   -0.7622   14.1494   42.2129 H   0  0  0  0  0
   -1.3733   15.3765   43.3196 H   0  0  0  0  0
    0.9188   14.9633   40.3980 H   0  0  0  0  0
    3.0738   16.1918   40.2164 H   0  0  0  0  0
    0.0223   17.0972   44.0351 H   0  0  0  0  0
    2.1612   18.3692   43.8448 H   0  0  0  0  0
    3.6725   17.8968   41.9229 H   0  0  0  0  0
  1  2  2  0  0  0
  2  3  1  0  0  0
  2 12  1  0  0  0
  3  4  1  0  0  0
  4  5  1  0  0  0
  4 11  1  0  0  0
  5  6  4  0  0  0
  5 10  4  0  0  0
  6  7  4  0  0  0
  7  8  4  0  0  0
  8  9  4  0  0  0
  9 10  4  0  0  0
 12 13  4  0  0  0
 12 22  4  0  0  0
 13 14  4  0  0  0
 14 15  1  0  0  0
 14 21  4  0  0  0
 15 16  1  0  0  0
 15 20  1  0  0  0
 16 17  2  0  0  0
 16 18  1  0  0  0
 16 19  2  0  0  0
 21 23  4  0  0  0
 22 23  4  0  0  0
 23 24  1  0  0  0
 24 25  2  0  0  0
 24 26  1  0  0  0
 26 27  1  0  0  0
 27 28  1  0  0  0
 27 38  1  0  0  0
 28 29  1  0  0  0
 29 30  1  0  0  0
 30 31  4  0  0  0
 30 37  4  0  0  0
 31 32  4  0  0  0
 32 33  1  0  0  0
 32 34  4  0  0  0
 34 35  4  0  0  0
 35 36  1  0  0  0
 35 37  4  0  0  0
 38 39  1  0  0  0
 38 40  1  0  0  0
 40 41  1  0  0  0
 41 42  1  0  0  0
 41 47  1  0  0  0
 42 43  1  0  0  0
 43 44  1  0  0  0
 44 45  1  0  0  0
 45 46  1  0  0  0
 47 48  2  0  0  0
 47 49  1  0  0  0
 49 50  1  0  0  0
 50 51  1  0  0  0
 50 54  1  0  0  0
 51 52  1  0  0  0
 51 53  1  0  0  0
 54 55  2  0  0  0
 54 56  1  0  0  0
 56 57  1  0  0  0
 57 58  1  0  0  0
 58 59  4  0  0  0
 58 61  4  0  0  0
 59 60  4  0  0  0
 60 63  4  0  0  0
 61 62  4  0  0  0
 62 63  4  0  0  0
  3 64  1  0  0  0
  4 65  1  0  0  0
  6 66  1  0  0  0
  7 67  1  0  0  0
  8 68  1  0  0  0
  9 69  1  0  0  0
 10 70  1  0  0  0
 11 71  1  0  0  0
 11 72  1  0  0  0
 11 73  1  0  0  0
 13 74  1  0  0  0
 18 75  1  0  0  0
 18 76  1  0  0  0
 18 77  1  0  0  0
 20 78  1  0  0  0
 20 79  1  0  0  0
 20 80  1  0  0  0
 21 81  1  0  0  0
 22 82  1  0  0  0
 26 83  1  0  0  0
 27 84  1  0  0  0
 28 85  1  0  0  0
 28 86  1  0  0  0
 31 87  1  0  0  0
 34 88  1  0  0  0
 37 89  1  0  0  0
 38 90  1  0  0  0
 39 91  1  0  0  0
 40 92  1  0  0  0
 40 93  1  0  0  0
 41 94  1  0  0  0
 43 95  1  0  0  0
 43 96  1  0  0  0
 44 97  1  0  0  0
 44 98  1  0  0  0
 46 99  1  0  0  0
 46100  1  0  0  0
 46101  1  0  0  0
 49102  1  0  0  0
 50103  1  0  0  0
 51104  1  0  0  0
 52105  1  0  0  0
 52106  1  0  0  0
 52107  1  0  0  0
 53108  1  0  0  0
 53109  1  0  0  0
 53110  1  0  0  0
 56111  1  0  0  0
 57112  1  0  0  0
 57113  1  0  0  0
 59114  1  0  0  0
 60115  1  0  0  0
 61116  1  0  0  0
 62117  1  0  0  0
 63118  1  0  0  0
M  END
$$$$
