4pis_ligand
  -I-interpret- 

 61 62  0  0  0  0  0  0  0  0999 V2000
  -38.0910   17.5900  -12.4920 C   0  0  0  0  0
  -37.4670   18.7020  -13.0960 C   0  0  0  0  0
  -37.9840   19.2180  -14.3020 C   0  0  0  0  0
  -39.1160   18.6090  -14.8970 C   0  0  0  0  0
  -43.2780   16.8850  -15.7290 C   0  0  0  0  0
  -42.4080   18.8160  -14.5470 C   0  0  0  0  0
  -40.3600   15.7410  -15.7710 C   0  0  0  0  0
  -40.9720   16.7410  -14.8030 C   0  0  0  0  0
  -39.7340   17.4900  -14.2790 C   0  0  0  0  0
  -39.2050   16.9950  -13.0830 C   0  0  0  0  0
  -37.4850   16.8420  -11.0370 Cl  0  0  0  0  0
  -37.2410   20.6350  -15.0290 Cl  0  0  0  0  0
  -40.0890   14.6410  -15.2980 O   0  0  0  0  0
  -42.0310   17.6350  -15.3860 N   0  3  0  0  0
  -40.1440   16.0970  -17.0730 N   0  0  0  0  0
  -39.5370   15.2220  -18.1040 C   0  0  0  0  0
  -38.2490   15.8370  -18.6610 C   0  0  0  0  0
  -37.7630   16.8130  -18.0940 O   0  0  0  0  0
  -40.5530   14.8320  -19.2450 C   0  0  0  0  0
  -41.3900   16.0130  -19.8410 C   0  0  0  0  0
  -41.4800   13.6890  -18.7480 C   0  0  0  0  0
  -40.7120   16.8220  -20.9820 C   0  0  0  0  0
  -36.4480   15.8870  -20.3070 C   0  0  0  0  0
  -36.1410   15.2790  -21.6770 C   0  0  0  0  0
  -34.6130   14.0670  -23.0340 C   0  0  0  0  0
  -36.6550   14.8180  -23.9880 C   0  0  0  0  0
  -37.0250   15.4080  -22.7650 C   0  0  0  0  0
  -37.6640   15.2970  -19.7620 N   0  0  0  0  0
  -34.9570   14.6430  -21.8430 N   0  0  0  0  0
  -35.4710   14.1520  -24.0930 N   0  0  0  0  0
  -33.3310   13.3910  -23.1800 C   0  0  0  0  0
  -32.6360   13.4330  -24.2880 N   0  0  0  0  0
  -36.5919   19.1587  -12.6338 H   0  0  0  0  0
  -39.5142   19.0009  -15.8329 H   0  0  0  0  0
  -43.0457   16.1122  -16.4618 H   0  0  0  0  0
  -43.6823   16.4235  -14.8281 H   0  0  0  0  0
  -44.0119   17.5744  -16.1463 H   0  0  0  0  0
  -42.7899   18.4705  -13.5863 H   0  0  0  0  0
  -41.5298   19.4414  -14.3867 H   0  0  0  0  0
  -43.1779   19.3931  -15.0592 H   0  0  0  0  0
  -41.5496   16.2543  -14.0171 H   0  0  0  0  0
  -39.6699   16.1321  -12.6061 H   0  0  0  0  0
  -41.5836   17.9953  -16.2288 H   0  0  0  0  0
  -40.4218   17.0366  -17.3567 H   0  0  0  0  0
  -39.2692   14.2869  -17.6121 H   0  0  0  0  0
  -39.9388   14.4967  -20.0808 H   0  0  0  0  0
  -41.5532   16.7152  -19.0235 H   0  0  0  0  0
  -42.2851   15.5658  -20.2734 H   0  0  0  0  0
  -40.8756   12.8201  -18.4874 H   0  0  0  0  0
  -42.0316   14.0259  -17.8703 H   0  0  0  0  0
  -42.1810   13.4217  -19.5387 H   0  0  0  0  0
  -39.7862   17.2630  -20.6124 H   0  0  0  0  0
  -40.4911   16.1560  -21.8161 H   0  0  0  0  0
  -41.3849   17.6123  -21.3148 H   0  0  0  0  0
  -36.5881   16.9626  -20.4149 H   0  0  0  0  0
  -35.6172   15.6859  -19.6307 H   0  0  0  0  0
  -37.3159   14.8939  -24.8515 H   0  0  0  0  0
  -37.9664   15.9479  -22.6634 H   0  0  0  0  0
  -38.0765   14.4775  -20.2077 H   0  0  0  0  0
  -32.9355   12.8287  -22.3341 H   0  0  0  0  0
  -32.9881   13.9535  -25.0914 H   0  0  0  0  0
  1  2  4  0  0  0
 10  1  4  0  0  0
  1 11  1  0  0  0
  3  2  4  0  0  0
  4  3  4  0  0  0
  3 12  1  0  0  0
  9  4  4  0  0  0
 14  5  1  0  0  0
 14  6  1  0  0  0
  7  8  1  0  0  0
  7 13  2  0  0  0
 15  7  1  0  0  0
  8  9  1  0  0  0
  8 14  1  0  0  0
  9 10  4  0  0  0
 16 15  1  0  0  0
 17 16  1  0  0  0
 16 19  1  0  0  0
 17 18  2  0  0  0
 28 17  1  0  0  0
 19 20  1  0  0  0
 19 21  1  0  0  0
 20 22  1  0  0  0
 23 24  1  0  0  0
 23 28  1  0  0  0
 24 27  4  0  0  0
 24 29  4  0  0  0
 29 25  4  0  0  0
 25 30  4  0  0  0
 25 31  1  0  0  0
 27 26  4  0  0  0
 26 30  4  0  0  0
 31 32  2  0  0  0
  2 33  1  0  0  0
  4 34  1  0  0  0
  5 35  1  0  0  0
  5 36  1  0  0  0
  5 37  1  0  0  0
  6 38  1  0  0  0
  6 39  1  0  0  0
  6 40  1  0  0  0
  8 41  1  0  0  0
 10 42  1  0  0  0
 14 43  1  0  0  0
 15 44  1  0  0  0
 16 45  1  0  0  0
 19 46  1  0  0  0
 20 47  1  0  0  0
 20 48  1  0  0  0
 21 49  1  0  0  0
 21 50  1  0  0  0
 21 51  1  0  0  0
 22 52  1  0  0  0
 22 53  1  0  0  0
 22 54  1  0  0  0
 23 55  1  0  0  0
 23 56  1  0  0  0
 26 57  1  0  0  0
 27 58  1  0  0  0
 28 59  1  0  0  0
 31 60  1  0  0  0
 32 61  1  0  0  0
M  END
$$$$
