### 
### Created by X-TOOL on Mon Sep 10 21:13:20 2018
### 

@<TRIPOS>MOLECULE
4pis_ligand
   61    62     1     0     0
SMALL
GAST_HUCK


@<TRIPOS>ATOM
      1 C11       -38.0910   17.5900  -12.4920 C.ar      1 3FU         0.0349
      2 C12       -37.4670   18.7020  -13.0960 C.ar      1 3FU        -0.0406
      3 C13       -37.9840   19.2180  -14.3020 C.ar      1 3FU         0.0349
      4 C14       -39.1160   18.6090  -14.8970 C.ar      1 3FU        -0.0385
      5 C22       -43.2780   16.8850  -15.7290 C.3       1 3FU        -0.0399
      6 C23       -42.4080   18.8160  -14.5470 C.3       1 3FU        -0.0399
      7 C7        -40.3600   15.7410  -15.7710 C.2       1 3FU         0.2386
      8 C8        -40.9720   16.7410  -14.8030 C.3       1 3FU         0.1014
      9 C9        -39.7340   17.4900  -14.2790 C.ar      1 3FU         0.0246
     10 C10       -39.2050   16.9950  -13.0830 C.ar      1 3FU        -0.0385
     11 CL1       -37.4850   16.8420  -11.0370 Cl        1 3FU        -0.0724
     12 CL2       -37.2410   20.6350  -15.0290 Cl        1 3FU        -0.0724
     13 O17       -40.0890   14.6410  -15.2980 O.2       1 3FU        -0.3877
     14 N21       -42.0310   17.6350  -15.3860 N.4       1 3FU         0.2613
     15 N3        -40.1440   16.0970  -17.0730 N.am      1 3FU        -0.2591
     16 C2        -39.5370   15.2220  -18.1040 C.3       1 3FU         0.1338
     17 C1        -38.2490   15.8370  -18.6610 C.2       1 3FU         0.2042
     18 O4        -37.7630   16.8130  -18.0940 O.2       1 3FU        -0.3943
     19 C5        -40.5530   14.8320  -19.2450 C.3       1 3FU        -0.0037
     20 C18       -41.3900   16.0130  -19.8410 C.3       1 3FU        -0.0491
     21 C20       -41.4800   13.6890  -18.7480 C.3       1 3FU        -0.0582
     22 C19       -40.7120   16.8220  -20.9820 C.3       1 3FU        -0.0648
     23 C24       -36.4480   15.8870  -20.3070 C.3       1 3FU         0.0874
     24 C25       -36.1410   15.2790  -21.6770 C.ar      1 3FU         0.0741
     25 C27       -34.6130   14.0670  -23.0340 C.ar      1 3FU         0.1514
     26 C29       -36.6550   14.8180  -23.9880 C.ar      1 3FU         0.0275
     27 C30       -37.0250   15.4080  -22.7650 C.ar      1 3FU        -0.0005
     28 N6        -37.6640   15.2970  -19.7620 N.am      1 3FU        -0.2692
     29 N26       -34.9570   14.6430  -21.8430 N.ar      1 3FU        -0.2466
     30 N28       -35.4710   14.1520  -24.0930 N.ar      1 3FU        -0.2567
     31 C31       -33.3310   13.3910  -23.1800 C.2       1 3FU         0.0594
     32 N32       -32.6360   13.4330  -24.2880 N.2       1 3FU        -0.3299
     33 H         -36.5967   19.1562  -12.6363 H         1 3FU         0.0573
     34 H         -39.5120   18.9987  -15.8278 H         1 3FU         0.0570
     35 H         -44.0195   17.5797  -16.1503 H         1 3FU         0.0778
     36 H         -43.6871   16.4188  -14.8206 H         1 3FU         0.0778
     37 H         -43.0450   16.1048  -16.4685 H         1 3FU         0.0778
     38 H         -41.5026   19.3824  -14.2833 H         1 3FU         0.0778
     39 H         -42.9044   18.4698  -13.6285 H         1 3FU         0.0778
     40 H         -43.0939   19.4637  -15.1127 H         1 3FU         0.0778
     41 H         -41.4423   16.1935  -13.9729 H         1 3FU         0.1261
     42 H         -39.6673   16.1369  -12.6087 H         1 3FU         0.0570
     43 H         -41.6490   17.9972  -16.2456 H         1 3FU         0.2064
     44 H         -40.4163   17.0181  -17.3512 H         1 3FU         0.1886
     45 H         -39.2537   14.2856  -17.6010 H         1 3FU         0.0803
     46 H         -39.9521   14.4317  -20.0748 H         1 3FU         0.0345
     47 H         -41.6165   16.7116  -19.0221 H         1 3FU         0.0267
     48 H         -42.3275   15.5950  -20.2363 H         1 3FU         0.0267
     49 H         -40.8677   12.8738  -18.3350 H         1 3FU         0.0235
     50 H         -42.0770   13.3088  -19.5900 H         1 3FU         0.0235
     51 H         -42.1516   14.0750  -17.9670 H         1 3FU         0.0235
     52 H         -41.3902   17.6199  -21.3187 H         1 3FU         0.0230
     53 H         -40.4885   16.1510  -21.8245 H         1 3FU         0.0230
     54 H         -39.7775   17.2677  -20.6103 H         1 3FU         0.0230
     55 H         -36.5858   16.9732  -20.4129 H         1 3FU         0.0740
     56 H         -35.6089   15.6887  -19.6239 H         1 3FU         0.0740
     57 H         -37.3122   14.8935  -24.8467 H         1 3FU         0.0930
     58 H         -37.9613   15.9449  -22.6640 H         1 3FU         0.0763
     59 H         -38.0684   14.4936  -20.1990 H         1 3FU         0.1885
     60 H         -32.9359   12.8292  -22.3349 H         1 3FU         0.1164
     61 H         -31.7527   12.9509  -24.3475 H         1 3FU         0.1392
@<TRIPOS>BOND
     1    1    2 ar 
     2   10    1 ar 
     3    1   11 1  
     4    3    2 ar 
     5    4    3 ar 
     6    3   12 1  
     7    9    4 ar 
     8   14    5 1  
     9   14    6 1  
    10    7    8 1  
    11    7   13 2  
    12   15    7 am 
    13    8    9 1  
    14    8   14 1  
    15    9   10 ar 
    16   16   15 1  
    17   17   16 1  
    18   16   19 1  
    19   17   18 2  
    20   28   17 am 
    21   19   20 1  
    22   19   21 1  
    23   20   22 1  
    24   23   24 1  
    25   23   28 1  
    26   24   27 ar 
    27   24   29 ar 
    28   29   25 ar 
    29   25   30 ar 
    30   25   31 1  
    31   27   26 ar 
    32   26   30 ar 
    33   31   32 2  
    34    2   33 1  
    35    4   34 1  
    36    5   35 1  
    37    5   36 1  
    38    5   37 1  
    39    6   38 1  
    40    6   39 1  
    41    6   40 1  
    42    8   41 1  
    43   10   42 1  
    44   14   43 1  
    45   15   44 1  
    46   16   45 1  
    47   19   46 1  
    48   20   47 1  
    49   20   48 1  
    50   21   49 1  
    51   21   50 1  
    52   21   51 1  
    53   22   52 1  
    54   22   53 1  
    55   22   54 1  
    56   23   55 1  
    57   23   56 1  
    58   26   57 1  
    59   27   58 1  
    60   28   59 1  
    61   31   60 1  
    62   32   61 1  
@<TRIPOS>SUBSTRUCTURE
     1 3FU         1

