2jdl_ligand
  -I-interpret- 

146147  0  0  0  0  0  0  0  0999 V2000
   21.9450  -21.6190   13.7970 N   0  3  0  0  0
   20.8100  -21.0150   14.5480 C   0  0  0  0  0
   20.8210  -21.5190   15.9940 C   0  0  0  0  0
   20.8920  -22.7310   16.2610 O   0  0  0  0  0
   19.4370  -21.2980   13.8760 C   0  0  0  0  0
   18.3310  -20.2250   14.2350 C   0  0  0  0  0
   18.1060  -19.8850   15.4540 O   0  0  0  0  0
   17.6740  -19.7480   13.2620 O   0  0  0  0  0
   20.7640  -20.5520   16.9080 N   0  0  0  0  0
   20.6420  -20.8000   18.3330 C   0  0  0  0  0
   20.3300  -19.4210   19.0000 C   0  0  0  0  0
   19.4280  -18.6800   18.5530 O   0  0  0  0  0
   21.9400  -21.4760   18.8690 C   0  0  0  0  0
   21.7280  -22.1950   20.2170 C   0  0  0  0  0
   22.5150  -21.9060   21.1720 O   0  0  0  0  0
   20.7710  -23.0260   20.3030 O   0  0  0  0  0
   21.0100  -19.1460   20.1120 N   0  0  0  0  0
   21.2230  -17.8000   20.6510 C   0  0  0  0  0
   22.7380  -17.5990   20.8130 C   0  0  0  0  0
   23.1920  -16.5720   21.3220 O   0  0  0  0  0
   20.5120  -17.6280   22.0130 C   0  0  0  0  0
   18.9860  -17.5370   21.8910 C   0  0  0  0  0
   18.4020  -18.0560   20.9130 O   0  0  0  0  0
   18.3800  -16.9690   22.8100 O   0  0  0  0  0
   23.5020  -18.6070   20.3830 N   0  0  0  0  0
   24.9570  -18.6590   20.6000 C   0  0  0  0  0
   25.6750  -17.9060   19.4680 C   0  0  0  0  0
   26.8580  -17.5820   19.5990 O   0  0  0  0  0
   25.4880  -20.1150   20.7800 C   0  0  0  0  0
   25.4020  -20.7060   22.2640 C   0  0  0  0  0
   26.1740  -19.7660   23.6840 S   0  0  0  0  0
   24.9330  -18.5210   24.0980 C   0  0  0  0  0
   24.9270  -17.6220   18.3930 N   0  0  0  0  0
   25.3810  -16.8330   17.2760 C   0  0  0  0  0
   26.7200  -17.2550   16.6970 C   0  0  0  0  0
   27.4750  -16.3980   16.2170 O   0  0  0  0  0
   26.9960  -18.5700   16.7510 N   0  0  0  0  0
   28.3000  -19.1380   16.3930 C   0  0  0  0  0
   28.5540  -18.9060   14.9090 C   0  0  0  0  0
   27.7640  -19.2570   14.0760 O   0  0  0  0  0
   28.4690  -20.6430   16.7530 C   0  0  0  0  0
   28.7480  -20.9400   18.2720 C   0  0  0  0  0
   27.9200  -21.8710   18.9970 C   0  0  0  0  0
   29.8080  -20.3470   18.9590 C   0  0  0  0  0
   28.1560  -22.1880   20.4000 C   0  0  0  0  0
   30.0660  -20.6470   20.3490 C   0  0  0  0  0
   29.2320  -21.5740   21.0690 C   0  0  0  0  0
   29.6790  -18.2800   14.6010 N   0  0  0  0  0
   30.0470  -17.9510   13.2090 C   0  0  0  0  0
   29.3760  -16.7380   12.6020 C   0  0  0  0  0
   29.3500  -16.6010   11.3980 O   0  0  0  0  0
   28.7600  -15.8840   13.4030 N   0  0  0  0  0
   28.0480  -14.7150   12.8460 C   0  0  0  0  0
   28.6840  -13.4090   13.2070 C   0  0  0  0  0
   28.0350  -12.3460   13.0000 O   0  0  0  0  0
   26.5810  -14.6540   13.2790 C   0  0  0  0  0
   25.8440  -15.9470   13.0220 C   0  0  0  0  0
   24.5480  -15.8950   13.7900 C   0  0  0  0  0
   25.6560  -16.2720   11.5210 C   0  0  0  0  0
   29.9010  -13.4920   13.7630 N   0  0  0  0  0
   30.6460  -12.3310   14.2670 C   0  0  0  0  0
   32.0250  -12.3100   13.6470 C   0  0  0  0  0
   32.1790  -11.8010   12.5260 O   0  0  0  0  0
   30.5790  -12.2700   15.7990 C   0  0  0  0  0
   29.1370  -12.0920   16.3010 C   0  0  0  0  0
   28.3350  -13.2190   16.6040 C   0  0  0  0  0
   28.5460  -10.8300   16.3460 C   0  0  0  0  0
   26.9820  -13.0580   16.9740 C   0  0  0  0  0
   27.2310  -10.6740   16.7470 C   0  0  0  0  0
   26.4330  -11.8020   17.0380 C   0  0  0  0  0
   33.0300  -12.8670   14.3270 N   0  0  0  0  0
   34.3890  -12.8200   13.7820 C   0  0  0  0  0
   34.7000  -13.9810   12.8440 C   0  0  0  0  0
   33.8660  -14.7720   12.4860 O   0  0  0  0  0
   35.4770  -12.4830   14.8030 C   0  0  0  0  0
   35.6810  -13.5460   15.8680 C   0  0  0  0  0
   36.6930  -13.4350   16.6070 O   0  0  0  0  0
   34.8710  -14.4700   15.9800 O   0  0  0  0  0
   35.7610  -14.0260   12.2420 O   0  0  0  0  0
   22.8199  -21.4060   14.2762 H   0  0  0  0  0
   21.8197  -22.6301   13.7491 H   0  0  0  0  0
   21.9702  -21.2332   12.8531 H   0  0  0  0  0
   20.9442  -19.9333   14.5390 H   0  0  0  0  0
   19.0869  -22.2651   14.2368 H   0  0  0  0  0
   19.5863  -21.2685   12.7967 H   0  0  0  0  0
   18.7082  -20.3577   16.0332 H   0  0  0  0  0
   20.8085  -19.5841   16.5892 H   0  0  0  0  0
   19.8367  -21.4952   18.5700 H   0  0  0  0  0
   22.6844  -20.6945   19.0214 H   0  0  0  0  0
   22.2532  -22.2222   18.1388 H   0  0  0  0  0
   23.1554  -21.2567   20.8721 H   0  0  0  0  0
   21.4120  -19.9299   20.6261 H   0  0  0  0  0
   20.8051  -17.0571   19.9716 H   0  0  0  0  0
   20.8642  -16.6954   22.4539 H   0  0  0  0  0
   20.7431  -18.5040   22.6191 H   0  0  0  0  0
   19.0523  -18.4403   20.3205 H   0  0  0  0  0
   23.0569  -19.3756   19.8815 H   0  0  0  0  0
   25.1792  -18.1584   21.5424 H   0  0  0  0  0
   26.5457  -20.0926   20.5174 H   0  0  0  0  0
   24.8599  -20.7519   20.1571 H   0  0  0  0  0
   25.9591  -21.6418   22.2193 H   0  0  0  0  0
   24.3362  -20.7209   22.4920 H   0  0  0  0  0
   24.7538  -17.8860   23.2304 H   0  0  0  0  0
   24.0054  -19.0160   24.3854 H   0  0  0  0  0
   25.2935  -17.9122   24.9272 H   0  0  0  0  0
   23.9753  -17.9878   18.3636 H   0  0  0  0  0
   25.5019  -15.8124   17.6391 H   0  0  0  0  0
   24.6425  -16.9539   16.4835 H   0  0  0  0  0
   26.2596  -19.2060   17.0571 H   0  0  0  0  0
   29.0442  -18.6199   16.9978 H   0  0  0  0  0
   29.3364  -21.0021   16.1991 H   0  0  0  0  0
   27.5266  -21.1319   16.5062 H   0  0  0  0  0
   27.0908  -22.3534   18.4794 H   0  0  0  0  0
   30.4551  -19.6426   18.4362 H   0  0  0  0  0
   27.5083  -22.8908   20.9241 H   0  0  0  0  0
   30.9013  -20.1661   20.8580 H   0  0  0  0  0
   29.4309  -21.7973   22.1172 H   0  0  0  0  0
   30.3153  -18.0150   15.3529 H   0  0  0  0  0
   29.7346  -18.8027   12.6048 H   0  0  0  0  0
   31.1143  -17.7301   13.2231 H   0  0  0  0  0
   28.7766  -16.0335   14.4118 H   0  0  0  0  0
   28.1098  -14.8602   11.7675 H   0  0  0  0  0
   26.0932  -13.8697   12.7002 H   0  0  0  0  0
   26.5561  -14.4617   14.3516 H   0  0  0  0  0
   26.4486  -16.7811   13.3780 H   0  0  0  0  0
   24.7614  -15.7840   14.8531 H   0  0  0  0  0
   23.9572  -15.0460   13.4461 H   0  0  0  0  0
   23.9916  -16.8175   13.6241 H   0  0  0  0  0
   25.0850  -15.4739   11.0465 H   0  0  0  0  0
   26.6323  -16.3553   11.0435 H   0  0  0  0  0
   25.1187  -17.2149   11.4192 H   0  0  0  0  0
   30.3335  -14.4125   13.8403 H   0  0  0  0  0
   30.1865  -11.3931   13.9551 H   0  0  0  0  0
   31.1662  -11.4149   16.1337 H   0  0  0  0  0
   30.9667  -13.2080   16.1964 H   0  0  0  0  0
   28.7657  -14.2189   16.5512 H   0  0  0  0  0
   29.1283   -9.9537   16.0612 H   0  0  0  0  0
   26.3736  -13.9314   17.2088 H   0  0  0  0  0
   26.8082   -9.6736   16.8389 H   0  0  0  0  0
   25.3857  -11.6756   17.3122 H   0  0  0  0  0
   32.8524  -13.3232   15.2219 H   0  0  0  0  0
   34.4079  -11.9440   13.1337 H   0  0  0  0  0
   35.1678  -11.5710   15.3136 H   0  0  0  0  0
   36.4151  -12.3918   14.2554 H   0  0  0  0  0
   37.1879  -12.6521   16.3546 H   0  0  0  0  0
   36.3572  -13.3624   12.5966 H   0  0  0  0  0
  1  2  1  0  0  0
  2  3  1  0  0  0
  2  5  1  0  0  0
  3  4  2  0  0  0
  3  9  1  0  0  0
  5  6  1  0  0  0
  6  7  1  0  0  0
  6  8  2  0  0  0
  9 10  1  0  0  0
 10 11  1  0  0  0
 10 13  1  0  0  0
 11 12  2  0  0  0
 11 17  1  0  0  0
 13 14  1  0  0  0
 14 15  1  0  0  0
 14 16  2  0  0  0
 17 18  1  0  0  0
 18 19  1  0  0  0
 18 21  1  0  0  0
 19 20  2  0  0  0
 19 25  1  0  0  0
 21 22  1  0  0  0
 22 23  1  0  0  0
 22 24  2  0  0  0
 25 26  1  0  0  0
 26 27  1  0  0  0
 26 29  1  0  0  0
 27 28  2  0  0  0
 27 33  1  0  0  0
 29 30  1  0  0  0
 30 31  1  0  0  0
 31 32  1  0  0  0
 33 34  1  0  0  0
 34 35  1  0  0  0
 35 36  2  0  0  0
 35 37  1  0  0  0
 37 38  1  0  0  0
 38 39  1  0  0  0
 38 41  1  0  0  0
 39 40  2  0  0  0
 39 48  1  0  0  0
 41 42  1  0  0  0
 42 43  4  0  0  0
 42 44  4  0  0  0
 43 45  4  0  0  0
 44 46  4  0  0  0
 45 47  4  0  0  0
 46 47  4  0  0  0
 48 49  1  0  0  0
 49 50  1  0  0  0
 50 51  2  0  0  0
 50 52  1  0  0  0
 52 53  1  0  0  0
 53 54  1  0  0  0
 53 56  1  0  0  0
 54 55  2  0  0  0
 54 60  1  0  0  0
 56 57  1  0  0  0
 57 58  1  0  0  0
 57 59  1  0  0  0
 60 61  1  0  0  0
 61 62  1  0  0  0
 61 64  1  0  0  0
 62 63  2  0  0  0
 62 71  1  0  0  0
 64 65  1  0  0  0
 65 66  4  0  0  0
 65 67  4  0  0  0
 66 68  4  0  0  0
 67 69  4  0  0  0
 68 70  4  0  0  0
 69 70  4  0  0  0
 71 72  1  0  0  0
 72 73  1  0  0  0
 72 75  1  0  0  0
 73 74  2  0  0  0
 73 79  1  0  0  0
 75 76  1  0  0  0
 76 77  1  0  0  0
 76 78  2  0  0  0
  1 80  1  0  0  0
  1 81  1  0  0  0
  1 82  1  0  0  0
  2 83  1  0  0  0
  5 84  1  0  0  0
  5 85  1  0  0  0
  7 86  1  0  0  0
  9 87  1  0  0  0
 10 88  1  0  0  0
 13 89  1  0  0  0
 13 90  1  0  0  0
 15 91  1  0  0  0
 17 92  1  0  0  0
 18 93  1  0  0  0
 21 94  1  0  0  0
 21 95  1  0  0  0
 23 96  1  0  0  0
 25 97  1  0  0  0
 26 98  1  0  0  0
 29 99  1  0  0  0
 29100  1  0  0  0
 30101  1  0  0  0
 30102  1  0  0  0
 32103  1  0  0  0
 32104  1  0  0  0
 32105  1  0  0  0
 33106  1  0  0  0
 34107  1  0  0  0
 34108  1  0  0  0
 37109  1  0  0  0
 38110  1  0  0  0
 41111  1  0  0  0
 41112  1  0  0  0
 43113  1  0  0  0
 44114  1  0  0  0
 45115  1  0  0  0
 46116  1  0  0  0
 47117  1  0  0  0
 48118  1  0  0  0
 49119  1  0  0  0
 49120  1  0  0  0
 52121  1  0  0  0
 53122  1  0  0  0
 56123  1  0  0  0
 56124  1  0  0  0
 57125  1  0  0  0
 58126  1  0  0  0
 58127  1  0  0  0
 58128  1  0  0  0
 59129  1  0  0  0
 59130  1  0  0  0
 59131  1  0  0  0
 60132  1  0  0  0
 61133  1  0  0  0
 64134  1  0  0  0
 64135  1  0  0  0
 66136  1  0  0  0
 67137  1  0  0  0
 68138  1  0  0  0
 69139  1  0  0  0
 70140  1  0  0  0
 71141  1  0  0  0
 72142  1  0  0  0
 75143  1  0  0  0
 75144  1  0  0  0
 77145  1  0  0  0
 79146  1  0  0  0
M  END
$$$$
