### 
### Created by X-TOOL on Mon Sep 10 21:12:57 2018
### 

@<TRIPOS>MOLECULE
2jdl_ligand
  141   142     1     0     0
SMALL
GAST_HUCK


@<TRIPOS>ATOM
      1 N          21.9450  -21.6190   13.7970 N.4       1 ASP         0.2391
      2 CA         20.8100  -21.0150   14.5480 C.3       1 ASP         0.0764
      3 C          20.8210  -21.5190   15.9940 C.2       1 ASP         0.2285
      4 O          20.8920  -22.7310   16.2610 O.2       1 ASP        -0.3906
      5 CB         19.4370  -21.2980   13.8760 C.3       1 ASP         0.0607
      6 CG         18.3310  -20.2250   14.2350 C.2       1 ASP         0.0425
      7 OD1        18.1060  -19.8850   15.4540 O.co2     1 ASP        -0.5686
      8 OD2        17.6740  -19.7480   13.2620 O.co2     1 ASP        -0.5686
      9 N          20.7640  -20.5520   16.9080 N.am      1 ASP        -0.2594
     10 CA         20.6420  -20.8000   18.3330 C.3       1 ASP         0.1424
     11 C          20.3300  -19.4210   19.0000 C.2       1 ASP         0.2057
     12 O          19.4280  -18.6800   18.5530 O.2       1 ASP        -0.3943
     13 CB         21.9400  -21.4760   18.8690 C.3       1 ASP         0.0406
     14 CG         21.7280  -22.1950   20.2170 C.2       1 ASP         0.0393
     15 OD1        22.5150  -21.9060   21.1720 O.co2     1 ASP        -0.5688
     16 OD2        20.7710  -23.0260   20.3030 O.co2     1 ASP        -0.5688
     17 N          21.0100  -19.1460   20.1120 N.am      1 ASP        -0.2621
     18 CA         21.2230  -17.8000   20.6510 C.3       1 ASP         0.1423
     19 C          22.7380  -17.5990   20.8130 C.2       1 ASP         0.2056
     20 O          23.1920  -16.5720   21.3220 O.2       1 ASP        -0.3943
     21 CB         20.5120  -17.6280   22.0130 C.3       1 ASP         0.0406
     22 CG         18.9860  -17.5370   21.8910 C.2       1 ASP         0.0393
     23 OD1        18.4020  -18.0560   20.9130 O.co2     1 ASP        -0.5688
     24 OD2        18.3800  -16.9690   22.8100 O.co2     1 ASP        -0.5688
     25 N          23.5020  -18.6070   20.3830 N.am      1 MET        -0.2636
     26 CA         24.9570  -18.6590   20.6000 C.3       1 MET         0.1317
     27 C          25.6750  -17.9060   19.4680 C.2       1 MET         0.2037
     28 O          26.8580  -17.5820   19.5990 O.2       1 MET        -0.3944
     29 CB         25.4880  -20.1150   20.7800 C.3       1 MET        -0.0034
     30 CG         25.4020  -20.7060   22.2640 C.3       1 MET        -0.0024
     31 SD         26.1740  -19.7660   23.6840 S.3       1 MET        -0.1639
     32 CE         24.9330  -18.5210   24.0980 C.3       1 MET        -0.0181
     33 N          24.9270  -17.6220   18.3930 N.am      1 GLY        -0.2664
     34 CA         25.3810  -16.8330   17.2760 C.3       1 GLY         0.1201
     35 C          26.7200  -17.2550   16.6970 C.2       1 GLY         0.2009
     36 O          27.4750  -16.3980   16.2170 O.2       1 GLY        -0.3947
     37 N          26.9960  -18.5700   16.7510 N.am      1 PHE        -0.2622
     38 CA         28.3000  -19.1380   16.3930 C.3       1 PHE         0.1404
     39 C          28.5540  -18.9060   14.9090 C.2       1 PHE         0.2058
     40 O          27.7640  -19.2570   14.0760 O.2       1 PHE        -0.3942
     41 CB         28.4690  -20.6430   16.7530 C.3       1 PHE         0.0214
     42 CG         28.7480  -20.9400   18.2720 C.ar      1 PHE        -0.0386
     43 CD1        27.9200  -21.8710   18.9970 C.ar      1 PHE        -0.0601
     44 CD2        29.8080  -20.3470   18.9590 C.ar      1 PHE        -0.0601
     45 CE1        28.1560  -22.1880   20.4000 C.ar      1 PHE        -0.0686
     46 CE2        30.0660  -20.6470   20.3490 C.ar      1 PHE        -0.0686
     47 CZ         29.2320  -21.5740   21.0690 C.ar      1 PHE        -0.0687
     48 N          29.6790  -18.2800   14.6010 N.am      1 GLY        -0.2663
     49 CA         30.0470  -17.9510   13.2090 C.3       1 GLY         0.1201
     50 C          29.3760  -16.7380   12.6020 C.2       1 GLY         0.2007
     51 O          29.3500  -16.6010   11.3980 O.2       1 GLY        -0.3947
     52 N          28.7600  -15.8840   13.4030 N.am      1 LEU        -0.2640
     53 CA         28.0480  -14.7150   12.8460 C.3       1 LEU         0.1312
     54 C          28.6840  -13.4090   13.2070 C.2       1 LEU         0.2040
     55 O          28.0350  -12.3460   13.0000 O.2       1 LEU        -0.3944
     56 CB         26.5810  -14.6540   13.2790 C.3       1 LEU        -0.0101
     57 CG         25.8440  -15.9470   13.0220 C.3       1 LEU        -0.0425
     58 CD1        24.5480  -15.8950   13.7900 C.3       1 LEU        -0.0625
     59 CD2        25.6560  -16.2720   11.5210 C.3       1 LEU        -0.0625
     60 N          29.9010  -13.4920   13.7630 N.am      1 PHE        -0.2619
     61 CA         30.6460  -12.3310   14.2670 C.3       1 PHE         0.1404
     62 C          32.0250  -12.3100   13.6470 C.2       1 PHE         0.2055
     63 O          32.1790  -11.8010   12.5260 O.2       1 PHE        -0.3942
     64 CB         30.5790  -12.2700   15.7990 C.3       1 PHE         0.0214
     65 CG         29.1370  -12.0920   16.3010 C.ar      1 PHE        -0.0386
     66 CD1        28.3350  -13.2190   16.6040 C.ar      1 PHE        -0.0601
     67 CD2        28.5460  -10.8300   16.3460 C.ar      1 PHE        -0.0601
     68 CE1        26.9820  -13.0580   16.9740 C.ar      1 PHE        -0.0686
     69 CE2        27.2310  -10.6740   16.7470 C.ar      1 PHE        -0.0686
     70 CZ         26.4330  -11.8020   17.0380 C.ar      1 PHE        -0.0687
     71 N          33.0300  -12.8670   14.3270 N.am      1 ASP        -0.2678
     72 CA         34.3890  -12.8200   13.7820 C.3       1 ASP         0.1058
     73 C          34.7000  -13.9810   12.8440 C.2       1 ASP         0.0618
     74 O          33.8660  -14.7720   12.4860 O.co2     1 ASP        -0.5665
     75 CB         35.4770  -12.4830   14.8030 C.3       1 ASP         0.0351
     76 CG         35.6810  -13.5460   15.8680 C.2       1 ASP         0.0387
     77 OD1        36.6930  -13.4350   16.6070 O.co2     1 ASP        -0.5688
     78 OD2        34.8710  -14.4700   15.9800 O.co2     1 ASP        -0.5688
     79 OXT        35.7610  -14.0260   12.2420 O.co2     1 ASP        -0.5665
     80 H1         21.9343  -21.2849   12.8460 H         1 ASP         0.2016
     81 H2         21.8545  -22.6229   13.8014 H         1 ASP         0.2016
     82 H3         22.8145  -21.3580   14.2350 H         1 ASP         0.2016
     83 H4         20.9564  -19.9249   14.5626 H         1 ASP         0.1117
     84 H5         19.0843  -22.2864   14.2054 H         1 ASP         0.0512
     85 H6         19.5769  -21.3034   12.7850 H         1 ASP         0.0512
     86 H7         20.8076  -19.6031   16.5955 H         1 ASP         0.1886
     87 H8         19.7991  -21.4822   18.5176 H         1 ASP         0.0819
     88 H9         22.7103  -20.7020   19.0012 H         1 ASP         0.0478
     89 H10        22.2839  -22.2129   18.1282 H         1 ASP         0.0478
     90 H11        21.4041  -19.9146   20.6160 H         1 ASP         0.1884
     91 H12        20.8255  -17.0560   19.9450 H         1 ASP         0.0819
     92 H13        20.8804  -16.7056   22.4856 H         1 ASP         0.0478
     93 H14        20.7610  -18.4905   22.6487 H         1 ASP         0.0478
     94 H15        23.0656  -19.3605   19.8913 H         1 MET         0.1883
     95 H16        25.1690  -18.1245   21.5378 H         1 MET         0.0800
     96 H17        26.5435  -20.1305   20.4707 H         1 MET         0.0320
     97 H18        24.9028  -20.7722   20.1201 H         1 MET         0.0320
     98 H19        25.8796  -21.6966   22.2406 H         1 MET         0.0378
     99 H20        24.3337  -20.8194   22.5004 H         1 MET         0.0378
    100 H21        25.2956  -17.9060   24.9348 H         1 MET         0.0340
    101 H22        23.9963  -19.0193   24.3883 H         1 MET         0.0340
    102 H23        24.7512  -17.8794   23.2232 H         1 MET         0.0340
    103 H24        23.9940  -17.9806   18.3641 H         1 GLY         0.1881
    104 H25        25.4666  -15.7879   17.6083 H         1 GLY         0.0763
    105 H26        24.6265  -16.9037   16.4787 H         1 GLY         0.0763
    106 H27        26.2741  -19.1935   17.0511 H         1 PHE         0.1885
    107 H28        29.0638  -18.5851   16.9595 H         1 PHE         0.0823
    108 H29        29.3115  -21.0405   16.1681 H         1 PHE         0.0474
    109 H30        27.5449  -21.1672   16.4678 H         1 PHE         0.0474
    110 H31        27.0954  -22.3507   18.4823 H         1 PHE         0.0557
    111 H32        30.4515  -19.6465   18.4391 H         1 PHE         0.0557
    112 H33        27.5119  -22.8869   20.9212 H         1 PHE         0.0599
    113 H34        30.8967  -20.1688   20.8552 H         1 PHE         0.0599
    114 H35        29.4298  -21.7960   22.1114 H         1 PHE         0.0559
    115 H36        30.3028  -18.0202   15.3382 H         1 GLY         0.1881
    116 H37        29.7964  -18.8199   12.5828 H         1 GLY         0.0763
    117 H38        31.1334  -17.7805   13.1819 H         1 GLY         0.0763
    118 H39        28.7763  -16.0306   14.3921 H         1 LEU         0.1883
    119 H40        28.0760  -14.8142   11.7509 H         1 LEU         0.0800
    120 H41        26.0824  -13.8477   12.7210 H         1 LEU         0.0315
    121 H42        26.5406  -14.4339   14.3560 H         1 LEU         0.0315
    122 H43        26.4490  -16.7632   13.4438 H         1 LEU         0.0298
    123 H44        23.9855  -16.8255   13.6234 H         1 LEU         0.0232
    124 H45        23.9507  -15.0386   13.4439 H         1 LEU         0.0232
    125 H46        24.7619  -15.7831   14.8632 H         1 LEU         0.0232
    126 H47        26.6375  -16.2938   11.0248 H         1 LEU         0.0232
    127 H48        25.0265  -15.4998   11.0547 H         1 LEU         0.0232
    128 H49        25.1705  -17.2535   11.4163 H         1 LEU         0.0232
    129 H50        30.3251  -14.3945   13.8388 H         1 PHE         0.1885
    130 H51        30.1328  -11.4279   13.9051 H         1 PHE         0.0823
    131 H52        31.1849  -11.4210   16.1483 H         1 PHE         0.0474
    132 H53        30.9863  -13.2052   16.2107 H         1 PHE         0.0474
    133 H54        28.7633  -14.2134   16.5515 H         1 PHE         0.0557
    134 H55        29.1251   -9.9585   16.0627 H         1 PHE         0.0557
    135 H56        26.3769  -13.9266   17.2075 H         1 PHE         0.0599
    136 H57        26.8105   -9.6791   16.8384 H         1 PHE         0.0599
    137 H58        25.3914  -11.6763   17.3107 H         1 PHE         0.0559
    138 H59        32.8558  -13.3142   15.2043 H         1 ASP         0.1877
    139 H60        34.3790  -11.9425   13.1187 H         1 ASP         0.0745
    140 H61        35.2020  -11.5424   15.3026 H         1 ASP         0.0471
    141 H62        36.4263  -12.3480   14.2639 H         1 ASP         0.0471
@<TRIPOS>BOND
     1    1    2 1  
     2    2    3 1  
     3    2    5 1  
     4    3    4 2  
     5    3    9 am 
     6    5    6 1  
     7    6    7 ar 
     8    6    8 ar 
     9    9   10 1  
    10   10   11 1  
    11   10   13 1  
    12   11   12 2  
    13   11   17 am 
    14   13   14 1  
    15   14   15 ar 
    16   14   16 ar 
    17   17   18 1  
    18   18   19 1  
    19   18   21 1  
    20   19   20 2  
    21   19   25 am 
    22   21   22 1  
    23   22   23 ar 
    24   22   24 ar 
    25   25   26 1  
    26   26   27 1  
    27   26   29 1  
    28   27   28 2  
    29   27   33 am 
    30   29   30 1  
    31   30   31 1  
    32   31   32 1  
    33   33   34 1  
    34   34   35 1  
    35   35   36 2  
    36   35   37 am 
    37   37   38 1  
    38   38   39 1  
    39   38   41 1  
    40   39   40 2  
    41   39   48 am 
    42   41   42 1  
    43   42   43 ar 
    44   42   44 ar 
    45   43   45 ar 
    46   44   46 ar 
    47   45   47 ar 
    48   46   47 ar 
    49   48   49 1  
    50   49   50 1  
    51   50   51 2  
    52   50   52 am 
    53   52   53 1  
    54   53   54 1  
    55   53   56 1  
    56   54   55 2  
    57   54   60 am 
    58   56   57 1  
    59   57   58 1  
    60   57   59 1  
    61   60   61 1  
    62   61   62 1  
    63   61   64 1  
    64   62   63 2  
    65   62   71 am 
    66   64   65 1  
    67   65   66 ar 
    68   65   67 ar 
    69   66   68 ar 
    70   67   69 ar 
    71   68   70 ar 
    72   69   70 ar 
    73   71   72 1  
    74   72   73 1  
    75   72   75 1  
    76   73   74 ar 
    77   73   79 ar 
    78   75   76 1  
    79   76   77 ar 
    80   76   78 ar 
    81    1   80 1  
    82    1   81 1  
    83    1   82 1  
    84    2   83 1  
    85    5   84 1  
    86    5   85 1  
    87    9   86 1  
    88   10   87 1  
    89   13   88 1  
    90   13   89 1  
    91   17   90 1  
    92   18   91 1  
    93   21   92 1  
    94   21   93 1  
    95   25   94 1  
    96   26   95 1  
    97   29   96 1  
    98   29   97 1  
    99   30   98 1  
   100   30   99 1  
   101   32  100 1  
   102   32  101 1  
   103   32  102 1  
   104   33  103 1  
   105   34  104 1  
   106   34  105 1  
   107   37  106 1  
   108   38  107 1  
   109   41  108 1  
   110   41  109 1  
   111   43  110 1  
   112   44  111 1  
   113   45  112 1  
   114   46  113 1  
   115   47  114 1  
   116   48  115 1  
   117   49  116 1  
   118   49  117 1  
   119   52  118 1  
   120   53  119 1  
   121   56  120 1  
   122   56  121 1  
   123   57  122 1  
   124   58  123 1  
   125   58  124 1  
   126   58  125 1  
   127   59  126 1  
   128   59  127 1  
   129   59  128 1  
   130   60  129 1  
   131   61  130 1  
   132   64  131 1  
   133   64  132 1  
   134   66  133 1  
   135   67  134 1  
   136   68  135 1  
   137   69  136 1  
   138   70  137 1  
   139   71  138 1  
   140   72  139 1  
   141   75  140 1  
   142   75  141 1  
@<TRIPOS>SUBSTRUCTURE
     1 ASP         1

