1t29_ligand
  -I-interpret- 

199200  0  0  0  0  0  0  0  0999 V2000
   43.9890    0.6430   24.9140 N   0  3  0  0  0
   44.9410    1.7310   24.5430 C   0  0  0  0  0
   45.2590    2.5970   25.7650 C   0  0  0  0  0
   46.4150    2.7080   26.1760 O   0  0  0  0  0
   44.3540    2.6180   23.4040 C   0  0  0  0  0
   44.1000    1.7620   22.1570 C   0  0  0  0  0
   45.3250    3.7440   23.0620 C   0  0  0  0  0
   43.3810    2.4830   21.0290 C   0  0  0  0  0
   44.2240    3.1840   26.3640 N   0  0  0  0  0
   44.3990    4.0350   27.5330 C   0  0  0  0  0
   44.9770    3.2430   28.7110 C   0  0  0  0  0
   44.4020    2.2240   29.1230 O   0  0  0  0  0
   43.0610    4.6600   27.9240 C   0  0  0  0  0
   43.2460    5.6500   28.9120 O   0  0  0  0  0
   46.1070    3.7180   29.2500 N   0  0  0  0  0
   46.7870    3.0580   30.3690 C   0  0  0  0  0
   46.8170    3.9070   31.6330 C   0  0  0  0  0
   47.7210    3.7430   32.4440 O   0  0  0  0  0
   48.2590    2.7040   30.0330 C   0  0  0  0  0
   48.5280    1.9850   28.7110 C   0  0  0  0  0
   49.7150    1.0420   28.7710 C   0  0  0  0  0
   51.0060    1.5840   28.3740 N   0  0  0  0  0
   51.6380    1.2250   27.2660 C   0  0  0  0  0
   52.8200    1.7460   26.9920 N   0  0  0  0  0
   51.0660    0.3720   26.4260 N   0  0  0  0  0
   45.8640    4.8150   31.8110 N   0  0  0  0  0
   45.8540    5.6540   33.0060 C   0  0  0  0  0
   44.6870    5.2320   33.8720 C   0  0  0  0  0
   44.0110    4.2540   33.5540 O   0  0  0  0  0
   45.7110    7.1350   32.6220 C   0  0  0  0  0
   44.5280    7.3540   31.8830 O   0  0  0  0  0
   44.4730    5.9580   34.9670 N   0  0  0  0  0
   43.3710    5.7060   35.8870 C   0  0  0  0  0
   42.0990    6.3590   35.3510 C   0  0  0  0  0
   41.0030    6.1910   35.9070 O   0  0  0  0  0
   43.6940    6.2830   37.2830 C   0  0  0  0  0
   44.5530    5.3680   37.9780 O   0  0  0  0  0
   42.4210    6.5240   38.0960 C   0  0  0  0  0
   42.2480    7.1000   34.2570 N   0  0  0  0  0
   41.1190    7.7970   33.6490 C   0  0  0  0  0
   41.5900    8.6780   32.5050 C   0  0  0  0  0
   42.2620    9.8450   33.0390 O   0  0  0  0  0
   40.0670    6.8750   33.0910 C   0  0  0  0  0
   40.3460    6.0820   32.2070 O   0  0  0  0  0
   43.2010   10.7110   32.0800 P   0  0  0  0  0
   43.8630   11.7750   32.9310 O   0  0  0  0  0
   44.3340    9.9330   31.5570 O   0  0  0  0  0
   42.3480   11.0680   30.9320 O   0  0  0  0  0
   38.8100    7.0650   33.5160 N   0  0  0  0  0
   37.6920    6.2410   33.0470 C   0  0  0  0  0
   37.4920    6.4040   31.5430 C   0  0  0  0  0
   37.7710    7.4610   30.9950 O   0  0  0  0  0
   36.5040    6.7950   33.8330 C   0  0  0  0  0
   37.1320    7.2720   35.0960 C   0  0  0  0  0
   38.3680    7.9770   34.5850 C   0  0  0  0  0
   37.0120    5.3560   30.8840 N   0  0  0  0  0
   36.7450    5.3960   29.4560 C   0  0  0  0  0
   35.2470    5.1440   29.3180 C   0  0  0  0  0
   34.6360    4.5180   30.1800 O   0  0  0  0  0
   37.5130    4.3070   28.6990 C   0  0  0  0  0
   37.3120    3.0530   29.3550 O   0  0  0  0  0
   39.0070    4.6270   28.6650 C   0  0  0  0  0
   34.6620    5.6690   28.2520 N   0  0  0  0  0
   33.2430    5.5120   27.9920 C   0  0  0  0  0
   33.1650    4.8610   26.6240 C   0  0  0  0  0
   33.3180    5.4970   25.5930 O   0  0  0  0  0
   32.5650    6.8940   28.0390 C   0  0  0  0  0
   32.9640    7.7120   29.2470 C   0  0  0  0  0
   34.2360    8.2730   29.3320 C   0  0  0  0  0
   32.1140    7.8260   30.3420 C   0  0  0  0  0
   34.6520    8.9270   30.4860 C   0  0  0  0  0
   32.5280    8.4780   31.4990 C   0  0  0  0  0
   33.7910    9.0230   31.5710 C   0  0  0  0  0
   32.9960    3.5490   26.6210 N   0  0  0  0  0
   32.9250    2.8260   25.3710 C   0  0  0  0  0
   31.5970    2.1130   25.3330 C   0  0  0  0  0
   31.3320    1.3390   24.4110 O   0  0  0  0  0
   34.0530    1.7900   25.3050 C   0  0  0  0  0
   34.0950    0.8950   26.5360 C   0  0  0  0  0
   35.1480    0.3660   26.8950 O   0  0  0  0  0
   32.9490    0.7180   27.1850 N   0  0  0  0  0
   30.7560    2.3920   26.3210 N   0  0  0  0  0
   29.5050    1.6950   26.4240 C   0  0  0  0  0
   28.7420    2.1990   27.6030 C   0  0  0  0  0
   29.2790    2.7300   28.5650 O   0  0  0  0  0
   29.7460    0.2080   26.6580 C   0  0  0  0  0
   29.2130   -0.6920   25.5710 C   0  0  0  0  0
   27.7080   -0.6160   25.4270 C   0  0  0  0  0
   27.2890   -1.5590   24.3120 C   0  0  0  0  0
   25.8240   -1.6460   24.0830 N   0  3  0  0  0
   27.4540    1.9810   27.4390 N   0  0  0  0  0
   26.3450    2.2590   28.3110 C   0  0  0  0  0
   25.2140    2.2520   27.2380 C   0  0  0  0  0
   25.1280    3.1640   26.3730 O   0  0  0  0  0
   26.5040    3.6110   29.0290 C   0  0  0  0  0
   27.8600    3.8380   29.8150 C   0  0  0  0  0
   27.8560    3.7090   31.3500 C   0  0  0  0  0
   26.8200    3.7750   32.0030 O   0  0  0  0  0
   29.0560    3.5830   31.9260 N   0  0  0  0  0
   24.3230    1.2646   27.2357 O   0  0  0  0  0
   43.7865    0.0749   24.0914 H   0  0  0  0  0
   44.4077    0.0586   25.6376 H   0  0  0  0  0
   43.1245    1.0546   25.2657 H   0  0  0  0  0
   45.8602    1.2687   24.1832 H   0  0  0  0  0
   43.4130    3.0502   23.7442 H   0  0  0  0  0
   43.4599    0.9350   22.4643 H   0  0  0  0  0
   45.0753    1.4635   21.7725 H   0  0  0  0  0
   46.2667    3.3175   22.7164 H   0  0  0  0  0
   44.8961    4.3657   22.2761 H   0  0  0  0  0
   45.5035    4.3504   23.9500 H   0  0  0  0  0
   42.4080    2.8259   21.3807 H   0  0  0  0  0
   43.9755    3.3388   20.7093 H   0  0  0  0  0
   43.2456    1.7996   20.1907 H   0  0  0  0  0
   43.2852    3.0337   25.9946 H   0  0  0  0  0
   45.1058    4.8252   27.2795 H   0  0  0  0  0
   42.4099    3.8814   28.3214 H   0  0  0  0  0
   42.6145    5.1197   27.0423 H   0  0  0  0  0
   42.3961    6.0309   29.1448 H   0  0  0  0  0
   46.5108    4.5728   28.8670 H   0  0  0  0  0
   46.2017    2.1550   30.5426 H   0  0  0  0  0
   48.5801    2.0137   30.8130 H   0  0  0  0  0
   48.7807    3.6582   29.9594 H   0  0  0  0  0
   48.7489    2.7452   27.9617 H   0  0  0  0  0
   47.6461    1.3896   28.4746 H   0  0  0  0  0
   49.4968    0.2416   28.0640 H   0  0  0  0  0
   49.8191    0.7590   29.8185 H   0  0  0  0  0
   51.4471    2.2759   28.9799 H   0  0  0  0  0
   53.2408    2.4202   27.6314 H   0  0  0  0  0
   51.5395    0.1137   25.5603 H   0  0  0  0  0
   50.1527   -0.0255   26.6459 H   0  0  0  0  0
   45.1338    4.9270   31.1077 H   0  0  0  0  0
   46.7917    5.5333   33.5485 H   0  0  0  0  0
   46.5650    7.4211   32.0080 H   0  0  0  0  0
   45.6689    7.7303   33.5341 H   0  0  0  0  0
   44.4617    8.2843   31.6556 H   0  0  0  0  0
   45.1106    6.7273   35.1720 H   0  0  0  0  0
   43.2249    4.6293   35.9738 H   0  0  0  0  0
   44.1923    7.2442   37.1567 H   0  0  0  0  0
   44.7579    5.7206   38.8471 H   0  0  0  0  0
   41.7827    7.2322   37.5677 H   0  0  0  0  0
   41.8901    5.5809   38.2254 H   0  0  0  0  0
   42.6863    6.9300   39.0722 H   0  0  0  0  0
   43.1721    7.1832   33.8332 H   0  0  0  0  0
   40.6785    8.3800   34.4578 H   0  0  0  0  0
   40.7315    8.9929   31.9118 H   0  0  0  0  0
   42.2809    8.1173   31.8754 H   0  0  0  0  0
   43.1891   12.3382   33.3186 H   0  0  0  0  0
   41.5958   11.5787   31.2402 H   0  0  0  0  0
   37.8428    5.1729   33.2038 H   0  0  0  0  0
   35.7256    6.0511   34.0027 H   0  0  0  0  0
   35.9754    7.5848   33.2993 H   0  0  0  0  0
   36.4801    7.9162   35.6860 H   0  0  0  0  0
   37.3525    6.4687   35.7990 H   0  0  0  0  0
   38.1775    8.9929   34.2389 H   0  0  0  0  0
   39.1225    8.1442   35.3537 H   0  0  0  0  0
   36.8245    4.4945   31.3969 H   0  0  0  0  0
   37.0593    6.3510   29.0350 H   0  0  0  0  0
   37.1433    4.2600   27.6747 H   0  0  0  0  0
   37.7911    2.3667   28.8848 H   0  0  0  0  0
   39.1613    5.5823   28.1633 H   0  0  0  0  0
   39.3882    4.6848   29.6845 H   0  0  0  0  0
   39.5333    3.8413   28.1230 H   0  0  0  0  0
   35.2280    6.2017   27.5915 H   0  0  0  0  0
   32.7252    4.8982   28.7290 H   0  0  0  0  0
   31.4883    6.7323   28.0903 H   0  0  0  0  0
   32.8743    7.4443   27.1504 H   0  0  0  0  0
   34.9145    8.1982   28.4822 H   0  0  0  0  0
   31.1121    7.3996   30.2930 H   0  0  0  0  0
   35.6498    9.3625   30.5388 H   0  0  0  0  0
   31.8517    8.5578   32.3501 H   0  0  0  0  0
   34.1146    9.5298   32.4801 H   0  0  0  0  0
   32.9154    3.0453   27.5043 H   0  0  0  0  0
   33.0263    3.5114   24.5295 H   0  0  0  0  0
   34.9998    2.3269   25.2469 H   0  0  0  0  0
   33.8781    1.1573   24.4349 H   0  0  0  0  0
   32.9189    0.1252   28.0145 H   0  0  0  0  0
   32.0994    1.1750   26.8537 H   0  0  0  0  0
   30.9992    3.1041   27.0096 H   0  0  0  0  0
   28.9544    1.8567   25.4973 H   0  0  0  0  0
   29.2238   -0.0586   27.5769 H   0  0  0  0  0
   30.8256    0.0617   26.6918 H   0  0  0  0  0
   29.4706   -1.7182   25.8329 H   0  0  0  0  0
   29.6540   -0.3708   24.6274 H   0  0  0  0  0
   27.4056    0.4037   25.1885 H   0  0  0  0  0
   27.2273   -0.9044   26.3618 H   0  0  0  0  0
   27.6228   -2.5558   24.6001 H   0  0  0  0  0
   27.7296   -1.1749   23.3920 H   0  0  0  0  0
   25.6383   -2.2982   23.3211 H   0  0  0  0  0
   25.3672   -1.9757   24.9333 H   0  0  0  0  0
   25.4640   -0.7236   23.8380 H   0  0  0  0  0
   27.2027    1.5453   26.5516 H   0  0  0  0  0
   26.1948    1.5735   29.1451 H   0  0  0  0  0
   25.7115    3.6511   29.7762 H   0  0  0  0  0
   26.4759    4.3722   28.2493 H   0  0  0  0  0
   28.1309    4.8754   29.6187 H   0  0  0  0  0
   28.5252    3.0481   29.4661 H   0  0  0  0  0
   29.1318    3.5386   32.9422 H   0  0  0  0  0
   29.8957    3.5313   31.3492 H   0  0  0  0  0
   24.5217    0.6541   27.9494 H   0  0  0  0  0
  2  1  1  0  0  0
  2  5  1  0  0  0
  3  2  1  0  0  0
  3  4  2  0  0  0
  5  7  1  0  0  0
  5  6  1  0  0  0
  6  8  1  0  0  0
 10  9  1  0  0  0
 10 13  1  0  0  0
 11 10  1  0  0  0
 11 12  2  0  0  0
 13 14  1  0  0  0
  9  3  1  0  0  0
 16 15  1  0  0  0
 16 19  1  0  0  0
 17 16  1  0  0  0
 17 18  2  0  0  0
 19 20  1  0  0  0
 20 21  1  0  0  0
 21 22  1  0  0  0
 22 23  1  0  0  0
 23 25  1  0  0  0
 23 24  2  0  0  0
 15 11  1  0  0  0
 27 26  1  0  0  0
 27 30  1  0  0  0
 28 27  1  0  0  0
 28 29  2  0  0  0
 30 31  1  0  0  0
 26 17  1  0  0  0
 33 32  1  0  0  0
 33 36  1  0  0  0
 34 33  1  0  0  0
 34 35  2  0  0  0
 36 38  1  0  0  0
 36 37  1  0  0  0
 32 28  1  0  0  0
 50 51  1  0  0  0
 50 53  1  0  0  0
 49 50  1  0  0  0
 49 55  1  0  0  0
 55 54  1  0  0  0
 54 53  1  0  0  0
 51 52  2  0  0  0
 56 57  1  0  0  0
 57 60  1  0  0  0
 57 58  1  0  0  0
 58 59  2  0  0  0
 60 62  1  0  0  0
 60 61  1  0  0  0
 51 56  1  0  0  0
 63 64  1  0  0  0
 64 67  1  0  0  0
 64 65  1  0  0  0
 65 66  2  0  0  0
 67 68  1  0  0  0
 68 69  4  0  0  0
 68 70  4  0  0  0
 70 72  4  0  0  0
 72 73  4  0  0  0
 71 73  4  0  0  0
 69 71  4  0  0  0
 58 63  1  0  0  0
 74 75  1  0  0  0
 75 78  1  0  0  0
 75 76  1  0  0  0
 76 77  2  0  0  0
 78 79  1  0  0  0
 79 81  1  0  0  0
 79 80  2  0  0  0
 65 74  1  0  0  0
 82 83  1  0  0  0
 83 86  1  0  0  0
 83 84  1  0  0  0
 84 85  2  0  0  0
 86 87  1  0  0  0
 87 88  1  0  0  0
 88 89  1  0  0  0
 89 90  1  0  0  0
 76 82  1  0  0  0
 91 92  1  0  0  0
 92 95  1  0  0  0
 92 93  1  0  0  0
 93 94  2  0  0  0
 95 96  1  0  0  0
 96 97  1  0  0  0
 97 99  1  0  0  0
 97 98  2  0  0  0
 84 91  1  0  0  0
 39 40  1  0  0  0
 40 41  1  0  0  0
 40 43  1  0  0  0
 41 42  1  0  0  0
 42 45  1  0  0  0
 43 44  2  0  0  0
 45 46  1  0  0  0
 45 47  2  0  0  0
 45 48  1  0  0  0
 93100  1  0  0  0
 43 49  1  0  0  0
 34 39  1  0  0  0
  1101  1  0  0  0
  1102  1  0  0  0
  1103  1  0  0  0
  2104  1  0  0  0
  5105  1  0  0  0
  6106  1  0  0  0
  6107  1  0  0  0
  7108  1  0  0  0
  7109  1  0  0  0
  7110  1  0  0  0
  8111  1  0  0  0
  8112  1  0  0  0
  8113  1  0  0  0
  9114  1  0  0  0
 10115  1  0  0  0
 13116  1  0  0  0
 13117  1  0  0  0
 14118  1  0  0  0
 15119  1  0  0  0
 16120  1  0  0  0
 19121  1  0  0  0
 19122  1  0  0  0
 20123  1  0  0  0
 20124  1  0  0  0
 21125  1  0  0  0
 21126  1  0  0  0
 22127  1  0  0  0
 24128  1  0  0  0
 25129  1  0  0  0
 25130  1  0  0  0
 26131  1  0  0  0
 27132  1  0  0  0
 30133  1  0  0  0
 30134  1  0  0  0
 31135  1  0  0  0
 32136  1  0  0  0
 33137  1  0  0  0
 36138  1  0  0  0
 37139  1  0  0  0
 38140  1  0  0  0
 38141  1  0  0  0
 38142  1  0  0  0
 39143  1  0  0  0
 40144  1  0  0  0
 41145  1  0  0  0
 41146  1  0  0  0
 46147  1  0  0  0
 48148  1  0  0  0
 50149  1  0  0  0
 53150  1  0  0  0
 53151  1  0  0  0
 54152  1  0  0  0
 54153  1  0  0  0
 55154  1  0  0  0
 55155  1  0  0  0
 56156  1  0  0  0
 57157  1  0  0  0
 60158  1  0  0  0
 61159  1  0  0  0
 62160  1  0  0  0
 62161  1  0  0  0
 62162  1  0  0  0
 63163  1  0  0  0
 64164  1  0  0  0
 67165  1  0  0  0
 67166  1  0  0  0
 69167  1  0  0  0
 70168  1  0  0  0
 71169  1  0  0  0
 72170  1  0  0  0
 73171  1  0  0  0
 74172  1  0  0  0
 75173  1  0  0  0
 78174  1  0  0  0
 78175  1  0  0  0
 81176  1  0  0  0
 81177  1  0  0  0
 82178  1  0  0  0
 83179  1  0  0  0
 86180  1  0  0  0
 86181  1  0  0  0
 87182  1  0  0  0
 87183  1  0  0  0
 88184  1  0  0  0
 88185  1  0  0  0
 89186  1  0  0  0
 89187  1  0  0  0
 90188  1  0  0  0
 90189  1  0  0  0
 90190  1  0  0  0
 91191  1  0  0  0
 92192  1  0  0  0
 95193  1  0  0  0
 95194  1  0  0  0
 96195  1  0  0  0
 96196  1  0  0  0
 99197  1  0  0  0
 99198  1  0  0  0
100199  1  0  0  0
M  END
$$$$
