### 
### Created by X-TOOL on Mon Sep 10 21:12:52 2018
### 

@<TRIPOS>MOLECULE
1t29_ligand
  198   199     1     0     0
SMALL
GAST_HUCK


@<TRIPOS>ATOM
      1 N          43.9890    0.6430   24.9140 N.4       1 ILE         0.2381
      2 CA         44.9410    1.7310   24.5430 C.3       1 ILE         0.0676
      3 C          45.2590    2.5970   25.7650 C.2       1 ILE         0.2270
      4 O          46.4150    2.7080   26.1760 O.2       1 ILE        -0.3907
      5 CB         44.3540    2.6180   23.4040 C.3       1 ILE         0.0164
      6 CG1        44.1000    1.7620   22.1570 C.3       1 ILE        -0.0460
      7 CG2        45.3250    3.7440   23.0620 C.3       1 ILE        -0.0551
      8 CD1        43.3810    2.4830   21.0290 C.3       1 ILE        -0.0647
      9 N          44.2240    3.1840   26.3640 N.am      1 SER        -0.2588
     10 CA         44.3990    4.0350   27.5330 C.3       1 SER         0.1540
     11 C          44.9770    3.2430   28.7110 C.2       1 SER         0.2062
     12 O          44.4020    2.2240   29.1230 O.2       1 SER        -0.3943
     13 CB         43.0610    4.6600   27.9240 C.3       1 SER         0.0843
     14 OG         43.2460    5.6500   28.9120 O.3       1 SER        -0.3903
     15 N          46.1070    3.7180   29.2500 N.am      1 ARG        -0.2637
     16 CA         46.7870    3.0580   30.3690 C.3       1 ARG         0.1311
     17 C          46.8170    3.9070   31.6330 C.2       1 ARG         0.2040
     18 O          47.7210    3.7430   32.4440 O.2       1 ARG        -0.3944
     19 CB         48.2590    2.7040   30.0330 C.3       1 ARG        -0.0092
     20 CG         48.5280    1.9850   28.7110 C.3       1 ARG        -0.0156
     21 CD         49.7150    1.0420   28.7710 C.3       1 ARG         0.0627
     22 NE         51.0060    1.5840   28.3740 N.pl3     1 ARG        -0.2723
     23 CZ         51.6380    1.2250   27.2660 C.cat     1 ARG         0.2882
     24 NH1        52.8200    1.7460   26.9920 N.pl3     1 ARG        -0.2849
     25 NH2        51.0660    0.3720   26.4260 N.pl3     1 ARG        -0.2849
     26 N          45.8640    4.8150   31.8110 N.am      1 SER        -0.2616
     27 CA         45.8540    5.6540   33.0060 C.3       1 SER         0.1539
     28 C          44.6870    5.2320   33.8720 C.2       1 SER         0.2063
     29 O          44.0110    4.2540   33.5540 O.2       1 SER        -0.3943
     30 CB         45.7110    7.1350   32.6220 C.3       1 SER         0.0843
     31 OG         44.5280    7.3540   31.8830 O.3       1 SER        -0.3903
     32 N          44.4730    5.9580   34.9670 N.am      1 THR        -0.2613
     33 CA         43.3710    5.7060   35.8870 C.3       1 THR         0.1565
     34 C          42.0990    6.3590   35.3510 C.2       1 THR         0.2065
     35 O          41.0030    6.1910   35.9070 O.2       1 THR        -0.3943
     36 CB         43.6940    6.2830   37.2830 C.3       1 THR         0.0924
     37 OG1        44.5530    5.3680   37.9780 O.3       1 THR        -0.3874
     38 CG2        42.4210    6.5240   38.0960 C.3       1 THR        -0.0346
     39 N          42.2480    7.1000   34.2570 N.am      1 SEP        -0.2612
     40 CA         41.1190    7.7970   33.6490 C.3       1 SEP         0.1588
     41 CB         41.5900    8.6780   32.5050 C.3       1 SEP         0.1184
     42 OG         42.2620    9.8450   33.0390 O.3       1 SEP        -0.2714
     43 C          40.0670    6.8750   33.0910 C.2       1 SEP         0.2090
     44 O          40.3460    6.0820   32.2070 O.2       1 SEP        -0.3941
     45 P          43.2010   10.7110   32.0800 P.3       1 SEP         0.2010
     46 O1P        43.8630   11.7750   32.9310 O.co2     1 SEP        -0.5537
     47 O2P        44.3340    9.9330   31.5570 O.co2     1 SEP        -0.5537
     48 O3P        42.3480   11.0680   30.9320 O.co2     1 SEP        -0.5537
     49 N          38.8100    7.0650   33.5160 N.am      1 PRO        -0.2498
     50 CA         37.6920    6.2410   33.0470 C.3       1 PRO         0.1338
     51 C          37.4920    6.4040   31.5430 C.2       1 PRO         0.2042
     52 O          37.7710    7.4610   30.9950 O.2       1 PRO        -0.3944
     53 CB         36.5040    6.7950   33.8330 C.3       1 PRO        -0.0104
     54 CG         37.1320    7.2720   35.0960 C.3       1 PRO        -0.0281
     55 CD         38.3680    7.9770   34.5850 C.3       1 PRO         0.0369
     56 N          37.0120    5.3560   30.8840 N.am      1 THR        -0.2613
     57 CA         36.7450    5.3960   29.4560 C.3       1 THR         0.1565
     58 C          35.2470    5.1440   29.3180 C.2       1 THR         0.2066
     59 O          34.6360    4.5180   30.1800 O.2       1 THR        -0.3943
     60 CB         37.5130    4.3070   28.6990 C.3       1 THR         0.0924
     61 OG1        37.3120    3.0530   29.3550 O.3       1 THR        -0.3874
     62 CG2        39.0070    4.6270   28.6650 C.3       1 THR        -0.0346
     63 N          34.6620    5.6690   28.2520 N.am      1 PHE        -0.2619
     64 CA         33.2430    5.5120   27.9920 C.3       1 PHE         0.1404
     65 C          33.1650    4.8610   26.6240 C.2       1 PHE         0.2061
     66 O          33.3180    5.4970   25.5930 O.2       1 PHE        -0.3942
     67 CB         32.5650    6.8940   28.0390 C.3       1 PHE         0.0214
     68 CG         32.9640    7.7120   29.2470 C.ar      1 PHE        -0.0386
     69 CD1        34.2360    8.2730   29.3320 C.ar      1 PHE        -0.0601
     70 CD2        32.1140    7.8260   30.3420 C.ar      1 PHE        -0.0601
     71 CE1        34.6520    8.9270   30.4860 C.ar      1 PHE        -0.0686
     72 CE2        32.5280    8.4780   31.4990 C.ar      1 PHE        -0.0686
     73 CZ         33.7910    9.0230   31.5710 C.ar      1 PHE        -0.0687
     74 N          32.9960    3.5490   26.6210 N.am      1 ASN        -0.2615
     75 CA         32.9250    2.8260   25.3710 C.3       1 ASN         0.1476
     76 C          31.5970    2.1130   25.3330 C.2       1 ASN         0.2063
     77 O          31.3320    1.3390   24.4110 O.2       1 ASN        -0.3942
     78 CB         34.0530    1.7900   25.3050 C.3       1 ASN         0.0773
     79 CG         34.0950    0.8950   26.5360 C.2       1 ASN         0.1780
     80 OD1        35.1480    0.3660   26.8950 O.2       1 ASN        -0.3970
     81 ND2        32.9490    0.7180   27.1850 N.am      1 ASN        -0.3007
     82 N          30.7560    2.3920   26.3210 N.am      1 LYS        -0.2636
     83 CA         29.5050    1.6950   26.4240 C.3       1 LYS         0.1310
     84 C          28.7420    2.1990   27.6030 C.2       1 LYS         0.2040
     85 O          29.2790    2.7300   28.5650 O.2       1 LYS        -0.3944
     86 CB         29.7460    0.2080   26.6580 C.3       1 LYS        -0.0122
     87 CG         29.2130   -0.6920   25.5710 C.3       1 LYS        -0.0440
     88 CD         27.7080   -0.6160   25.4270 C.3       1 LYS        -0.0124
     89 CE         27.2890   -1.5590   24.3120 C.3       1 LYS        -0.0354
     90 NZ         25.8240   -1.6460   24.0830 N.4       1 LYS         0.2185
     91 N          27.4540    1.9810   27.4390 N.am      1 GLN        -0.2622
     92 CA         26.3450    2.2590   28.3110 C.3       1 GLN         0.1441
     93 C          25.2140    2.2520   27.2380 C.2       1 GLN         0.2572
     94 O          25.1280    3.1640   26.3730 O.2       1 GLN        -0.3680
     95 CB         26.5040    3.6110   29.0290 C.3       1 GLN         0.0059
     96 CG         27.8600    3.8380   29.8150 C.3       1 GLN         0.0413
     97 CD         27.8560    3.7090   31.3500 C.2       1 GLN         0.1737
     98 OE1        26.8200    3.7750   32.0030 O.2       1 GLN        -0.3973
     99 NE2        29.0560    3.5830   31.9260 N.am      1 GLN        -0.3009
    100 O1         24.3230    1.2646   27.2357 O.3       1 GLN        -0.2910
    101 H1         43.7881    0.0809   24.1017 H         1 ILE         0.2015
    102 H2         43.1342    1.0485   25.2617 H         1 ILE         0.2015
    103 H3         44.4017    0.0647   25.6290 H         1 ILE         0.2015
    104 H4         45.8737    1.2714   24.1841 H         1 ILE         0.1101
    105 H5         43.4025    3.0538   23.7426 H         1 ILE         0.0378
    106 H6         43.4902    0.8960   22.4540 H         1 ILE         0.0269
    107 H7         45.0715    1.4133   21.7767 H         1 ILE         0.0269
    108 H8         45.5059    4.3567   23.9574 H         1 ILE         0.0236
    109 H9         44.8933    4.3722   22.2689 H         1 ILE         0.0236
    110 H10        46.2759    3.3149   22.7131 H         1 ILE         0.0236
    111 H11        43.2437    1.7943   20.1824 H         1 ILE         0.0230
    112 H12        43.9800    3.3470   20.7054 H         1 ILE         0.0230
    113 H13        42.3988    2.8296   21.3826 H         1 ILE         0.0230
    114 H14        43.3036    3.0366   26.0019 H         1 SER         0.1885
    115 H15        45.1029    4.8404   27.2765 H         1 SER         0.0823
    116 H16        42.3969    3.8763   28.3173 H         1 SER         0.0606
    117 H17        42.6020    5.1175   27.0352 H         1 SER         0.0606
    118 H18        43.8172    6.3299   28.5744 H         1 SER         0.2097
    119 H19        46.5028    4.5561   28.8745 H         1 ARG         0.1883
    120 H20        46.2409    2.1280   30.5853 H         1 ARG         0.0800
    121 H21        48.6356    2.0596   30.8410 H         1 ARG         0.0313
    122 H22        48.8290    3.6447   30.0183 H         1 ARG         0.0313
    123 H23        48.7216    2.7408   27.9356 H         1 ARG         0.0301
    124 H24        47.6338    1.4038   28.4415 H         1 ARG         0.0301
    125 H25        49.4957    0.1890   28.1120 H         1 ARG         0.0689
    126 H26        49.8074    0.6894   29.8088 H         1 ARG         0.0689
    127 H27        51.4514    2.2827   28.9858 H         1 ARG         0.2642
    128 H28        53.3171    1.4716   26.1326 H         1 ARG         0.2615
    129 H29        53.2449    2.4268   27.6377 H         1 ARG         0.2615
    130 H30        50.1438   -0.0294   26.6481 H         1 ARG         0.2615
    131 H31        51.5442    0.1112   25.5518 H         1 ARG         0.2615
    132 H32        45.1481    4.9248   31.1215 H         1 SER         0.1884
    133 H33        46.7939    5.5141   33.5601 H         1 SER         0.0823
    134 H34        46.5765    7.4338   32.0123 H         1 SER         0.0606
    135 H35        45.6805    7.7429   33.5382 H         1 SER         0.0606
    136 H36        44.4624    8.2746   31.6580 H         1 SER         0.2097
    137 H37        45.0981    6.7122   35.1680 H         1 THR         0.1884
    138 H38        43.2143    4.6206   35.9727 H         1 THR         0.0826
    139 H39        44.2170    7.2425   37.1575 H         1 THR         0.0639
    140 H40        45.3405    5.2241   37.4665 H         1 THR         0.2101
    141 H41        42.6874    6.9338   39.0814 H         1 THR         0.0257
    142 H42        41.8842    5.5729   38.2274 H         1 THR         0.0257
    143 H43        41.7759    7.2387   37.5640 H         1 THR         0.0257
    144 H44        43.1539    7.1815   33.8415 H         1 SEP         0.1884
    145 H45        40.6561    8.4271   34.4227 H         1 SEP         0.0827
    146 H46        40.7237    8.9958   31.9063 H         1 SEP         0.0662
    147 H47        42.2872    8.1122   31.8696 H         1 SEP         0.0662
    148 H48        37.8576    5.1790   33.2808 H         1 PRO         0.0802
    149 H49        35.7610    6.0089   34.0331 H         1 PRO         0.0313
    150 H50        36.0241    7.6241   33.2923 H         1 PRO         0.0313
    151 H51        36.4698    7.9659   35.6345 H         1 PRO         0.0287
    152 H52        37.3949    6.4308   35.7542 H         1 PRO         0.0287
    153 H53        38.1259    8.9736   34.1875 H         1 PRO         0.0524
    154 H54        39.1303    8.0715   35.3724 H         1 PRO         0.0524
    155 H55        36.8282    4.5114   31.3868 H         1 THR         0.1884
    156 H56        37.0125    6.3819   29.0480 H         1 THR         0.0826
    157 H57        37.1334    4.2464   27.6683 H         1 THR         0.0639
    158 H58        36.3834    2.8534   29.3765 H         1 THR         0.2101
    159 H59        39.5393    3.8347   28.1182 H         1 THR         0.0257
    160 H60        39.3930    4.6856   29.6934 H         1 THR         0.0257
    161 H61        39.1641    5.5909   28.1589 H         1 THR         0.0257
    162 H62        35.2169    6.1912   27.6044 H         1 PHE         0.1885
    163 H63        32.7796    4.8578   28.7452 H         1 PHE         0.0823
    164 H64        31.4749    6.7482   28.0600 H         1 PHE         0.0474
    165 H65        32.8431    7.4510   27.1322 H         1 PHE         0.0474
    166 H66        34.9107    8.1986   28.4868 H         1 PHE         0.0557
    167 H67        31.1176    7.4019   30.2933 H         1 PHE         0.0557
    168 H68        35.6443    9.3602   30.5385 H         1 PHE         0.0599
    169 H69        31.8555    8.5573   32.3454 H         1 PHE         0.0599
    170 H70        34.1128    9.5270   32.4751 H         1 PHE         0.0559
    171 H71        32.9170    3.0552   27.4870 H         1 ASN         0.1885
    172 H72        33.0082    3.5233   24.5244 H         1 ASN         0.0826
    173 H73        35.0136    2.3192   25.2207 H         1 ASN         0.0551
    174 H74        33.9020    1.1602   24.4159 H         1 ASN         0.0551
    175 H75        32.9202    0.1396   28.0002 H         1 ASN         0.1814
    176 H76        32.1154    1.1632   26.8582 H         1 ASN         0.1814
    177 H77        30.9945    3.0901   26.9961 H         1 LYS         0.1883
    178 H78        28.9235    1.8441   25.5022 H         1 LYS         0.0800
    179 H79        29.2619   -0.0735   27.6048 H         1 LYS         0.0312
    180 H80        30.8308    0.0444   26.7379 H         1 LYS         0.0312
    181 H81        29.4908   -1.7298   25.8072 H         1 LYS         0.0269
    182 H82        29.6720   -0.3979   24.6156 H         1 LYS         0.0269
    183 H83        27.4095    0.4126   25.1764 H         1 LYS         0.0317
    184 H84        27.2281   -0.9177   26.3697 H         1 LYS         0.0317
    185 H85        27.6563   -2.5658   24.5600 H         1 LYS         0.0813
    186 H86        27.7607   -1.2161   23.3793 H         1 LYS         0.0813
    187 H87        25.6393   -2.2903   23.3301 H         1 LYS         0.1994
    188 H88        25.4671   -0.7350   23.8407 H         1 LYS         0.1994
    189 H89        25.3714   -1.9718   24.9227 H         1 LYS         0.1994
    190 H90        27.2076    1.5539   26.5690 H         1 GLN         0.1885
    191 H91        26.1998    1.4680   29.0615 H         1 GLN         0.0818
    192 H92        25.6794    3.7051   29.7509 H         1 GLN         0.0338
    193 H93        26.4202    4.4039   28.2712 H         1 GLN         0.0338
    194 H94        28.2062    4.8545   29.5765 H         1 GLN         0.0505
    195 H95        28.5838    3.1044   29.4304 H         1 GLN         0.0505
    196 H96        29.1269    3.4948   32.9196 H         1 GLN         0.1814
    197 H97        29.8826    3.5770   31.3632 H         1 GLN         0.1814
    198 H98        24.3626    0.8058   26.4048 H         1 GLN         0.2540
@<TRIPOS>BOND
     1    2    1 1  
     2    2    5 1  
     3    3    2 1  
     4    3    4 2  
     5    5    7 1  
     6    5    6 1  
     7    6    8 1  
     8   10    9 1  
     9   10   13 1  
    10   11   10 1  
    11   11   12 2  
    12   13   14 1  
    13    9    3 am 
    14   16   15 1  
    15   16   19 1  
    16   17   16 1  
    17   17   18 2  
    18   19   20 1  
    19   20   21 1  
    20   21   22 1  
    21   22   23 ar 
    22   23   25 ar 
    23   23   24 ar 
    24   15   11 am 
    25   27   26 1  
    26   27   30 1  
    27   28   27 1  
    28   28   29 2  
    29   30   31 1  
    30   26   17 am 
    31   33   32 1  
    32   33   36 1  
    33   34   33 1  
    34   34   35 2  
    35   36   38 1  
    36   36   37 1  
    37   32   28 am 
    38   50   51 1  
    39   50   53 1  
    40   49   50 1  
    41   49   55 1  
    42   55   54 1  
    43   54   53 1  
    44   51   52 2  
    45   56   57 1  
    46   57   60 1  
    47   57   58 1  
    48   58   59 2  
    49   60   62 1  
    50   60   61 1  
    51   51   56 am 
    52   63   64 1  
    53   64   67 1  
    54   64   65 1  
    55   65   66 2  
    56   67   68 1  
    57   68   69 ar 
    58   68   70 ar 
    59   70   72 ar 
    60   72   73 ar 
    61   71   73 ar 
    62   69   71 ar 
    63   58   63 am 
    64   74   75 1  
    65   75   78 1  
    66   75   76 1  
    67   76   77 2  
    68   78   79 1  
    69   79   81 am 
    70   79   80 2  
    71   65   74 am 
    72   82   83 1  
    73   83   86 1  
    74   83   84 1  
    75   84   85 2  
    76   86   87 1  
    77   87   88 1  
    78   88   89 1  
    79   89   90 1  
    80   76   82 am 
    81   91   92 1  
    82   92   95 1  
    83   92   93 1  
    84   93   94 2  
    85   95   96 1  
    86   96   97 1  
    87   97   99 am 
    88   97   98 2  
    89   84   91 am 
    90   39   40 1  
    91   40   41 1  
    92   40   43 1  
    93   41   42 1  
    94   42   45 1  
    95   43   44 2  
    96   45   46 ar 
    97   45   47 ar 
    98   45   48 ar 
    99   93  100 1  
   100   43   49 am 
   101   34   39 am 
   102    1  101 1  
   103    1  102 1  
   104    1  103 1  
   105    2  104 1  
   106    5  105 1  
   107    6  106 1  
   108    6  107 1  
   109    7  108 1  
   110    7  109 1  
   111    7  110 1  
   112    8  111 1  
   113    8  112 1  
   114    8  113 1  
   115    9  114 1  
   116   10  115 1  
   117   13  116 1  
   118   13  117 1  
   119   14  118 1  
   120   15  119 1  
   121   16  120 1  
   122   19  121 1  
   123   19  122 1  
   124   20  123 1  
   125   20  124 1  
   126   21  125 1  
   127   21  126 1  
   128   22  127 1  
   129   24  128 1  
   130   24  129 1  
   131   25  130 1  
   132   25  131 1  
   133   26  132 1  
   134   27  133 1  
   135   30  134 1  
   136   30  135 1  
   137   31  136 1  
   138   32  137 1  
   139   33  138 1  
   140   36  139 1  
   141   37  140 1  
   142   38  141 1  
   143   38  142 1  
   144   38  143 1  
   145   39  144 1  
   146   40  145 1  
   147   41  146 1  
   148   41  147 1  
   149   50  148 1  
   150   53  149 1  
   151   53  150 1  
   152   54  151 1  
   153   54  152 1  
   154   55  153 1  
   155   55  154 1  
   156   56  155 1  
   157   57  156 1  
   158   60  157 1  
   159   61  158 1  
   160   62  159 1  
   161   62  160 1  
   162   62  161 1  
   163   63  162 1  
   164   64  163 1  
   165   67  164 1  
   166   67  165 1  
   167   69  166 1  
   168   70  167 1  
   169   71  168 1  
   170   72  169 1  
   171   73  170 1  
   172   74  171 1  
   173   75  172 1  
   174   78  173 1  
   175   78  174 1  
   176   81  175 1  
   177   81  176 1  
   178   82  177 1  
   179   83  178 1  
   180   86  179 1  
   181   86  180 1  
   182   87  181 1  
   183   87  182 1  
   184   88  183 1  
   185   88  184 1  
   186   89  185 1  
   187   89  186 1  
   188   90  187 1  
   189   90  188 1  
   190   90  189 1  
   191   91  190 1  
   192   92  191 1  
   193   95  192 1  
   194   95  193 1  
   195   96  194 1  
   196   96  195 1  
   197   99  196 1  
   198   99  197 1  
   199  100  198 1  
@<TRIPOS>SUBSTRUCTURE
     1 ILE         1

