1o3l_ligand
  -I-interpret- 

 37 39  0  0  0  0  0  0  0  0999 V2000
   43.9660   -2.9640   26.0870 C   0  0  0  0  0
   44.2610   -1.5780   26.1950 C   0  0  0  0  0
   44.1330   -0.8650   27.3850 C   0  0  0  0  0
   43.7140   -1.5620   28.4750 C   0  0  0  0  0
   43.4090   -2.8710   28.4590 C   0  0  0  0  0
   43.5240   -3.6050   27.2790 C   0  0  0  0  0
   44.1170   -3.6620   24.8510 C   0  0  0  0  0
   43.8230   -4.9430   24.7440 N   0  0  0  0  0
   44.5530   -3.0480   23.7710 N   0  0  0  0  0
   43.5030   -1.1210   29.7020 N   0  0  0  0  0
   43.0240   -3.1900   29.7020 C   0  0  0  0  0
   43.0730   -2.0810   30.5250 C   0  0  0  0  0
   42.9180   -1.9290   31.9390 C   0  0  0  0  0
   42.6480   -3.0430   32.7920 C   0  0  0  0  0
   42.4840   -2.9410   34.1950 C   0  0  0  0  0
   42.1740   -4.2470   34.9990 C   0  0  0  0  0
   42.0880   -4.0950   36.5220 C   0  0  0  0  0
   41.0700   -3.6060   36.9600 O   0  0  0  0  0
   43.0300   -4.4660   37.1970 O   0  0  0  0  0
   42.6000   -1.6820   34.7680 C   0  0  0  0  0
   42.8580   -0.6130   33.9450 C   0  0  0  0  0
   43.0150   -0.7100   32.5740 C   0  0  0  0  0
   43.2450    0.4340   31.8500 O   0  0  0  0  0
   43.0180    1.1490   34.7080 Br  0  0  0  0  0
   44.6032   -1.0484   25.3058 H   0  0  0  0  0
   44.3578    0.2002   27.4398 H   0  0  0  0  0
   43.2762   -4.6664   27.2692 H   0  0  0  0  0
   43.9367   -5.4193   23.8493 H   0  0  0  0  0
   43.4819   -5.4575   25.5560 H   0  0  0  0  0
   44.6517   -3.5632   22.8962 H   0  0  0  0  0
   42.7151   -4.1858   30.0199 H   0  0  0  0  0
   42.5633   -4.0294   32.3361 H   0  0  0  0  0
   43.0022   -4.9288   34.8060 H   0  0  0  0  0
   41.1910   -4.5831   34.6692 H   0  0  0  0  0
   43.7152   -4.8162   36.6231 H   0  0  0  0  0
   42.4892   -1.5452   35.8437 H   0  0  0  0  0
   43.2834    1.1860   32.4455 H   0  0  0  0  0
  1  2  4  0  0  0
  1  6  4  0  0  0
  1  7  1  0  0  0
  2  3  4  0  0  0
  3  4  4  0  0  0
  4  5  4  0  0  0
  4 10  4  0  0  0
  5  6  4  0  0  0
  5 11  4  0  0  0
  7  8  1  0  0  0
  7  9  2  0  0  0
 10 12  4  0  0  0
 11 12  4  0  0  0
 12 13  1  0  0  0
 13 14  4  0  0  0
 13 22  4  0  0  0
 14 15  4  0  0  0
 15 16  1  0  0  0
 15 20  4  0  0  0
 16 17  1  0  0  0
 17 18  2  0  0  0
 17 19  1  0  0  0
 20 21  4  0  0  0
 21 22  4  0  0  0
 21 24  1  0  0  0
 22 23  1  0  0  0
  2 25  1  0  0  0
  3 26  1  0  0  0
  6 27  1  0  0  0
  8 28  1  0  0  0
  8 29  1  0  0  0
  9 30  1  0  0  0
 11 31  1  0  0  0
 14 32  1  0  0  0
 16 33  1  0  0  0
 16 34  1  0  0  0
 19 35  1  0  0  0
 20 36  1  0  0  0
 23 37  1  0  0  0
M  END
$$$$
