5ufs_ligand
  -I-interpret- 

 62 66  0  0  0  0  0  0  0  0999 V2000
   21.7320   36.5530   19.8270 C   0  0  0  0  0
   21.7420   37.7210   20.7540 C   0  0  0  0  0
   22.3010   38.8600   20.3940 C   0  0  0  0  0
   22.9190   39.1960   19.0180 C   0  0  0  0  0
   24.3730   39.6410   19.2960 C   0  0  0  0  0
   23.0650   37.9380   18.1490 C   0  0  0  0  0
   23.5490   38.3680   16.7260 C   0  0  0  0  0
   22.9550   39.6350   15.9780 C   0  0  0  0  0
   22.8180   40.9070   16.8390 C   0  0  0  0  0
   22.1600   40.4430   18.2170 C   0  0  0  0  0
   21.9480   41.7560   19.1240 C   0  0  0  0  0
   21.2200   42.9520   18.3670 C   0  0  0  0  0
   21.8020   43.3570   16.9930 C   0  0  0  0  0
   23.1760   44.0040   17.2550 C   0  0  0  0  0
   21.9840   42.0850   16.1180 C   0  0  0  0  0
   22.3810   42.7680   14.7740 C   0  0  0  0  0
   21.4070   43.9760   14.5790 C   0  0  0  0  0
   20.9720   44.4010   16.0330 C   0  0  0  0  0
   19.0660   43.9860   14.6380 C   0  0  0  0  0
   18.2910   45.2050   14.0710 C   0  0  0  0  0
   18.1220   42.7550   14.5740 C   0  0  0  0  0
   21.2970   45.9060   16.3510 C   0  0  0  0  0
   20.5750   46.6870   17.4610 C   0  0  0  0  0
   22.4980   36.7630   18.5430 C   0  0  0  0  0
   20.9230   39.9790   17.9780 F   0  0  0  0  0
   21.1450   35.5130   20.0970 O   0  0  0  0  0
   23.1920   42.1920   19.5720 O   0  0  0  0  0
   19.5690   44.2500   15.9580 O   0  0  0  0  0
   20.2110   43.6730   13.8820 O   0  0  0  0  0
   21.3440   47.7840   17.8650 O   0  0  0  0  0
   22.1580   46.4750   15.7020 O   0  0  0  0  0
   21.2829   37.6326   21.7386 H   0  0  0  0  0
   22.3302   39.6478   21.1467 H   0  0  0  0  0
   24.8748   39.8495   18.3511 H   0  0  0  0  0
   24.3649   40.5410   19.9108 H   0  0  0  0  0
   24.9010   38.8452   19.8214 H   0  0  0  0  0
   23.2484   37.5339   16.0920 H   0  0  0  0  0
   24.5951   38.6315   16.8817 H   0  0  0  0  0
   21.9483   39.3648   15.6593 H   0  0  0  0  0
   23.6505   39.8765   15.1742 H   0  0  0  0  0
   23.7973   41.3562   17.0042 H   0  0  0  0  0
   21.2952   41.4698   19.9486 H   0  0  0  0  0
   21.3287   43.8257   19.0095 H   0  0  0  0  0
   20.2025   42.6118   18.1747 H   0  0  0  0  0
   23.0485   44.8794   17.8918 H   0  0  0  0  0
   23.8266   43.2838   17.7511 H   0  0  0  0  0
   23.6213   44.3048   16.3067 H   0  0  0  0  0
   21.1473   41.4123   15.9293 H   0  0  0  0  0
   22.3011   42.0667   13.9434 H   0  0  0  0  0
   23.4173   43.1050   14.8008 H   0  0  0  0  0
   21.9312   44.7314   13.9935 H   0  0  0  0  0
   18.0012   45.0021   13.0400 H   0  0  0  0  0
   17.3991   45.3789   14.6730 H   0  0  0  0  0
   18.9303   46.0873   14.1031 H   0  0  0  0  0
   17.2316   42.9501   15.1716 H   0  0  0  0  0
   17.8336   42.5733   13.5387 H   0  0  0  0  0
   18.6404   41.8804   14.9669 H   0  0  0  0  0
   20.4200   46.0282   18.3154 H   0  0  0  0  0
   19.6190   47.0451   17.0789 H   0  0  0  0  0
   22.6062   35.9063   17.8779 H   0  0  0  0  0
   23.0787   42.9757   20.1148 H   0  0  0  0  0
   20.8804   48.2607   18.5574 H   0  0  0  0  0
  2  1  1  0  0  0
 24  1  1  0  0  0
  1 26  2  0  0  0
  3  2  2  0  0  0
  4  3  1  0  0  0
  4  5  1  0  0  0
  4  6  1  0  0  0
 10  4  1  0  0  0
  7  6  1  0  0  0
  6 24  2  0  0  0
  8  7  1  0  0  0
  9  8  1  0  0  0
  9 10  1  0  0  0
 15  9  1  0  0  0
 11 10  1  0  0  0
 10 25  1  0  0  0
 12 11  1  0  0  0
 11 27  1  0  0  0
 13 12  1  0  0  0
 13 14  1  0  0  0
 13 15  1  0  0  0
 18 13  1  0  0  0
 16 15  1  0  0  0
 17 16  1  0  0  0
 18 17  1  0  0  0
 17 29  1  0  0  0
 18 22  1  0  0  0
 28 18  1  0  0  0
 19 20  1  0  0  0
 19 21  1  0  0  0
 19 28  1  0  0  0
 19 29  1  0  0  0
 22 23  1  0  0  0
 22 31  2  0  0  0
 23 30  1  0  0  0
  2 32  1  0  0  0
  3 33  1  0  0  0
  5 34  1  0  0  0
  5 35  1  0  0  0
  5 36  1  0  0  0
  7 37  1  0  0  0
  7 38  1  0  0  0
  8 39  1  0  0  0
  8 40  1  0  0  0
  9 41  1  0  0  0
 11 42  1  0  0  0
 12 43  1  0  0  0
 12 44  1  0  0  0
 14 45  1  0  0  0
 14 46  1  0  0  0
 14 47  1  0  0  0
 15 48  1  0  0  0
 16 49  1  0  0  0
 16 50  1  0  0  0
 17 51  1  0  0  0
 20 52  1  0  0  0
 20 53  1  0  0  0
 20 54  1  0  0  0
 21 55  1  0  0  0
 21 56  1  0  0  0
 21 57  1  0  0  0
 23 58  1  0  0  0
 23 59  1  0  0  0
 24 60  1  0  0  0
 27 61  1  0  0  0
 30 62  1  0  0  0
M  END
$$$$
