6bib_ligand
  -I-interpret- 

 86 89  0  0  0  0  0  0  0  0999 V2000
   -2.8890    2.9380   10.0270 C   0  0  0  0  0
   -3.1170    3.6070   10.9870 O   0  0  0  0  0
   -2.5700    1.5940   10.0960 O   0  0  0  0  0
   -2.5200    1.0590   11.3950 C   0  0  0  0  0
   -3.5440   -0.0730   11.5930 C   0  0  0  0  0
   -3.7820   -1.0020   10.5860 C   0  0  0  0  0
   -4.6950   -2.0270   10.7990 C   0  0  0  0  0
   -5.3720   -2.1370   12.0110 C   0  0  0  0  0
   -5.1370   -1.2150   13.0140 C   0  0  0  0  0
   -4.2210   -0.1910   12.8100 C   0  0  0  0  0
   -1.6590    3.9390    2.0210 N   0  0  0  0  0
   -1.0000    5.0000    2.7260 C   0  0  0  0  0
    0.0010    4.3880    3.6910 C   0  0  0  0  0
    0.4730    5.5400    4.5390 C   0  0  0  0  0
   -0.2020    5.4310    5.7900 N   0  0  0  0  0
   -1.3240    6.0450    6.2360 C   0  0  0  0  0
   -1.6310    5.6130    7.5640 C   0  0  0  0  0
   -2.7240    5.9720    8.5260 C   0  0  0  0  0
   -3.6590    4.8040    8.6530 C   0  0  0  0  0
   -2.9630    3.5320    8.7200 N   0  0  0  0  0
   -4.5860    4.8490    7.4410 C   0  0  0  0  0
   -4.4100    4.1620    6.4820 O   0  0  0  0  0
   -0.6470    4.7610    7.7970 N   0  0  0  0  0
    0.1760    4.6530    6.7600 N   0  0  0  0  0
   -6.6090    5.8450    3.9780 N   0  0  0  0  0
   -6.1570    6.1760    2.6440 C   0  0  0  0  0
   -5.4090    5.0020    2.0370 C   0  0  0  0  0
   -3.9590    4.9820    2.5260 C   0  0  0  0  0
   -3.0920    3.8930    1.9010 C   0  0  0  0  0
   -3.5590    2.9790    1.3320 O   0  0  0  0  0
   -7.4270    6.4610    1.8830 C   0  0  0  0  0
   -8.1080    7.4870    2.6060 O   0  0  0  0  0
   -5.6630    5.7630    7.5470 N   0  0  0  0  0
   -6.6250    5.8920    6.4820 C   0  0  0  0  0
   -5.9820    6.3440    5.1780 C   0  0  0  0  0
   -5.0320    7.0560    5.1560 O   0  0  0  0  0
   -7.6180    6.9210    6.9690 C   0  0  0  0  0
   -8.4140    6.4670    8.1920 C   0  0  0  0  0
   -9.4050    7.5790    8.5330 C   0  0  0  0  0
  -10.4710    7.1500    9.5230 C   0  0  0  0  0
  -11.1050    5.8190    9.1730 C   0  0  0  0  0
  -10.0570    4.7470    9.0140 C   0  0  0  0  0
   -9.0940    5.1240    7.9140 C   0  0  0  0  0
   -2.7529    1.8562   12.1009 H   0  0  0  0  0
   -1.5232    0.6486   11.5561 H   0  0  0  0  0
   -3.2551   -0.9263    9.6348 H   0  0  0  0  0
   -4.8837   -2.7534   10.0086 H   0  0  0  0  0
   -6.0844   -2.9469   12.1682 H   0  0  0  0  0
   -5.6691   -1.2914   13.9622 H   0  0  0  0  0
   -4.0283    0.5275   13.6067 H   0  0  0  0  0
   -1.0991    3.2004    1.5951 H   0  0  0  0  0
   -1.7316    5.5929    3.2749 H   0  0  0  0  0
   -0.4858    5.6526    2.0205 H   0  0  0  0  0
    0.8261    3.9052    3.1673 H   0  0  0  0  0
   -0.4474    3.5980    4.2935 H   0  0  0  0  0
    0.2499    6.4928    4.0589 H   0  0  0  0  0
    1.5537    5.5041    4.6763 H   0  0  0  0  0
   -1.9091    6.7654    5.6643 H   0  0  0  0  0
   -3.2678    6.8426    8.1593 H   0  0  0  0  0
   -2.2959    6.2102    9.4997 H   0  0  0  0  0
   -4.2147    4.8814    9.5875 H   0  0  0  0  0
   -2.5545    3.0901    7.8964 H   0  0  0  0  0
   -7.4138    5.2259    4.0754 H   0  0  0  0  0
   -5.4686    7.0209    2.6257 H   0  0  0  0  0
   -5.4160    5.0999    0.9514 H   0  0  0  0  0
   -5.8979    4.0757    2.3386 H   0  0  0  0  0
   -3.9879    4.7889    3.5984 H   0  0  0  0  0
   -3.5167    5.9388    2.2484 H   0  0  0  0  0
   -8.0431    5.5656    1.8005 H   0  0  0  0  0
   -7.2093    6.7793    0.8635 H   0  0  0  0  0
   -8.9281    7.7033    2.1564 H   0  0  0  0  0
   -5.7585    6.3356    8.3857 H   0  0  0  0  0
   -7.0922    4.9324    6.2606 H   0  0  0  0  0
   -8.3290    7.0984    6.1621 H   0  0  0  0  0
   -7.0557    7.8099    7.2550 H   0  0  0  0  0
   -7.7657    6.2998    9.0521 H   0  0  0  0  0
   -9.9089    7.8656    7.6099 H   0  0  0  0  0
   -8.8419    8.3940    8.9878 H   0  0  0  0  0
  -11.2572    7.9049    9.5115 H   0  0  0  0  0
   -9.9948    7.0442   10.4978 H   0  0  0  0  0
  -11.6430    5.9247    8.2309 H   0  0  0  0  0
  -11.7808    5.5309    9.9782 H   0  0  0  0  0
  -10.5433    3.8058    8.7574 H   0  0  0  0  0
   -9.5082    4.6409    9.9498 H   0  0  0  0  0
   -8.3237    4.3552    7.8537 H   0  0  0  0  0
   -9.6532    5.2087    6.9822 H   0  0  0  0  0
  1  2  2  0  0  0
  1  3  1  0  0  0
 20  1  1  0  0  0
  3  4  1  0  0  0
  4  5  1  0  0  0
  5  6  4  0  0  0
  5 10  4  0  0  0
  6  7  4  0  0  0
  7  8  4  0  0  0
  9  8  4  0  0  0
 10  9  4  0  0  0
 11 12  1  0  0  0
 29 11  1  0  0  0
 12 13  1  0  0  0
 13 14  1  0  0  0
 14 15  1  0  0  0
 15 16  4  0  0  0
 15 24  4  0  0  0
 16 17  4  0  0  0
 17 18  1  0  0  0
 23 17  4  0  0  0
 18 19  1  0  0  0
 19 20  1  0  0  0
 19 21  1  0  0  0
 21 22  2  0  0  0
 21 33  1  0  0  0
 24 23  4  0  0  0
 26 25  1  0  0  0
 25 35  1  0  0  0
 27 26  1  0  0  0
 26 31  1  0  0  0
 28 27  1  0  0  0
 28 29  1  0  0  0
 29 30  2  0  0  0
 31 32  1  0  0  0
 33 34  1  0  0  0
 34 35  1  0  0  0
 34 37  1  0  0  0
 35 36  2  0  0  0
 37 38  1  0  0  0
 38 39  1  0  0  0
 38 43  1  0  0  0
 39 40  1  0  0  0
 40 41  1  0  0  0
 41 42  1  0  0  0
 42 43  1  0  0  0
  4 44  1  0  0  0
  4 45  1  0  0  0
  6 46  1  0  0  0
  7 47  1  0  0  0
  8 48  1  0  0  0
  9 49  1  0  0  0
 10 50  1  0  0  0
 11 51  1  0  0  0
 12 52  1  0  0  0
 12 53  1  0  0  0
 13 54  1  0  0  0
 13 55  1  0  0  0
 14 56  1  0  0  0
 14 57  1  0  0  0
 16 58  1  0  0  0
 18 59  1  0  0  0
 18 60  1  0  0  0
 19 61  1  0  0  0
 20 62  1  0  0  0
 25 63  1  0  0  0
 26 64  1  0  0  0
 27 65  1  0  0  0
 27 66  1  0  0  0
 28 67  1  0  0  0
 28 68  1  0  0  0
 31 69  1  0  0  0
 31 70  1  0  0  0
 32 71  1  0  0  0
 33 72  1  0  0  0
 34 73  1  0  0  0
 37 74  1  0  0  0
 37 75  1  0  0  0
 38 76  1  0  0  0
 39 77  1  0  0  0
 39 78  1  0  0  0
 40 79  1  0  0  0
 40 80  1  0  0  0
 41 81  1  0  0  0
 41 82  1  0  0  0
 42 83  1  0  0  0
 42 84  1  0  0  0
 43 85  1  0  0  0
 43 86  1  0  0  0
M  END
$$$$
