6bqk_ligand
  -I-interpret- 

 94 98  0  0  0  0  0  0  0  0999 V2000
   -6.1190    7.7880   30.6360 C   0  0  0  0  0
   -4.9650    8.7540   30.9290 C   0  0  0  0  0
   -4.7150    7.4440   30.2300 C   0  0  0  0  0
   -6.6740    7.0280   31.7300 N   0  0  0  0  0
   -6.5810    7.5440   35.2930 N   0  0  0  0  0
   -5.5100    8.3590   35.3020 C   0  0  0  0  0
   -6.9590    6.7470   34.1150 C   0  0  0  0  0
   -7.1080    7.6010   32.8600 C   0  0  0  0  0
   -5.2060    9.1740   36.5660 C   0  0  0  0  0
   -7.9390    3.7340   36.6150 C   0  0  0  0  0
   -3.6210    7.8480   37.8990 C   0  0  0  0  0
   -3.8630    8.8250   37.0010 N   0  0  0  0  0
   -7.0860    2.6860   37.0780 C   0  0  0  0  0
   -7.5060    7.3380   36.4170 C   0  0  0  0  0
   -8.3230    6.1640   34.5170 C   0  0  0  0  0
   -8.1820    6.0430   36.0250 C   0  0  0  0  0
   -7.3230    4.9210   36.3750 O   0  0  0  0  0
   -7.7020    1.4330   37.3560 C   0  0  0  0  0
   -9.2180    3.6150   36.4310 N   0  0  0  0  0
   -2.2890    7.6310   37.9740 O   0  0  0  0  0
   -5.4190   10.7100   36.3930 C   0  0  0  0  0
   -4.7780    8.4540   34.3380 O   0  0  0  0  0
   -5.6960    2.8450   37.2530 C   0  0  0  0  0
   -7.5880    8.7290   32.9100 O   0  0  0  0  0
   -4.4750    7.2640   38.5350 O   0  0  0  0  0
   -6.8770    0.3710   37.8160 C   0  0  0  0  0
   -5.5330    0.5490   37.9780 C   0  0  0  0  0
   -4.9600    1.7800   37.6890 C   0  0  0  0  0
   -9.7760    2.4290   36.6940 C   0  0  0  0  0
   -9.1100    1.3140   37.1470 C   0  0  0  0  0
   -4.7380   11.2380   35.1240 C   0  0  0  0  0
   -6.9050   11.0450   36.3060 C   0  0  0  0  0
   -4.8550   11.4510   37.6050 C   0  0  0  0  0
   -9.6220    0.0820   37.4150 O   0  0  0  0  0
   -3.2440    1.9720   37.8670 Cl  0  0  0  0  0
  -10.9660   -0.1730   36.9870 C   0  0  0  0  0
   -1.6950    6.6900   38.9660 C   0  0  0  0  0
   -2.1280    7.0410   40.3740 C   0  0  0  0  0
   -2.0270    5.2500   38.6270 C   0  0  0  0  0
   -0.2150    6.9470   38.7850 C   0  0  0  0  0
   -4.7760   10.0440   30.1150 C   0  0  0  0  0
   -5.6680   10.9570   30.5940 F   0  0  0  0  0
   -3.5470   10.5690   30.3770 F   0  0  0  0  0
   -7.0840    8.1020   29.4930 C   0  0  0  0  0
   -8.3970    7.7280   29.6650 N   0  0  0  0  0
   -6.7100    8.6540   28.4680 O   0  0  0  0  0
   -9.5380    8.0060   28.4990 S   0  0  0  0  0
   -9.6390    9.4320   28.4060 O   0  0  0  0  0
  -11.0070    7.3700   29.1850 C   0  0  0  0  0
   -9.2070    7.2490   27.3270 O   0  0  0  0  0
  -12.1340    8.2840   29.4280 C   0  0  0  0  0
  -12.2090    7.3000   28.3350 C   0  0  0  0  0
   -4.6125    9.2563   31.8298 H   0  0  0  0  0
   -4.1965    7.0915   29.3383 H   0  0  0  0  0
   -4.0332    6.5984   30.3209 H   0  0  0  0  0
   -6.7383    6.0141   31.6390 H   0  0  0  0  0
   -6.2052    5.9996   33.8674 H   0  0  0  0  0
   -5.9254    8.9135   37.3423 H   0  0  0  0  0
   -3.0728    9.3393   36.6117 H   0  0  0  0  0
   -8.2018    8.1641   36.5639 H   0  0  0  0  0
   -7.0088    7.2925   37.3859 H   0  0  0  0  0
   -8.5494    5.2170   34.0270 H   0  0  0  0  0
   -9.1652    6.7843   34.2103 H   0  0  0  0  0
   -9.1369    5.8760   36.5235 H   0  0  0  0  0
   -5.2169    3.8015   37.0439 H   0  0  0  0  0
   -7.3228   -0.5976   38.0423 H   0  0  0  0  0
   -4.9117   -0.2731   38.3332 H   0  0  0  0  0
  -10.8506    2.3378   36.5360 H   0  0  0  0  0
   -3.6669   11.0438   35.1803 H   0  0  0  0  0
   -5.1548   10.7330   34.2526 H   0  0  0  0  0
   -4.9101   12.3111   35.0405 H   0  0  0  0  0
   -7.3426   10.5306   35.4505 H   0  0  0  0  0
   -7.4032   10.7215   37.2199 H   0  0  0  0  0
   -7.0270   12.1214   36.1857 H   0  0  0  0  0
   -5.3681   11.1147   38.5060 H   0  0  0  0  0
   -3.7888   11.2422   37.6931 H   0  0  0  0  0
   -5.0073   12.5227   37.4772 H   0  0  0  0  0
  -11.6399    0.5355   37.4686 H   0  0  0  0  0
  -11.0293   -0.0585   35.9049 H   0  0  0  0  0
  -11.2473   -1.1892   37.2632 H   0  0  0  0  0
   -1.8005    8.0531   40.6118 H   0  0  0  0  0
   -3.2142    6.9834   40.4437 H   0  0  0  0  0
   -1.6798    6.3382   41.0764 H   0  0  0  0  0
   -3.1090    5.1181   38.6278 H   0  0  0  0  0
   -1.6311    5.0098   37.6402 H   0  0  0  0  0
   -1.5787    4.5905   39.3701 H   0  0  0  0  0
    0.0683    6.7228   37.7566 H   0  0  0  0  0
    0.0001    7.9932   39.0026 H   0  0  0  0  0
    0.3491    6.3096   39.4659 H   0  0  0  0  0
   -4.8998    9.8305   29.0533 H   0  0  0  0  0
   -8.6738    7.2682   30.5324 H   0  0  0  0  0
  -10.4485    6.6595   29.7945 H   0  0  0  0  0
  -12.5842    9.0958   29.9993 H   0  0  0  0  0
  -12.7540    6.8498   27.5053 H   0  0  0  0  0
  1  2  1  0  0  0
  1  3  1  0  0  0
  4  1  1  0  0  0
  1 44  1  0  0  0
  3  2  1  0  0  0
  2 41  1  0  0  0
  8  4  1  0  0  0
  5  6  1  0  0  0
  7  5  1  0  0  0
 14  5  1  0  0  0
  6  9  1  0  0  0
  6 22  2  0  0  0
  7  8  1  0  0  0
 15  7  1  0  0  0
  8 24  2  0  0  0
  9 12  1  0  0  0
  9 21  1  0  0  0
 10 13  4  0  0  0
 17 10  1  0  0  0
 10 19  4  0  0  0
 12 11  1  0  0  0
 11 20  1  0  0  0
 11 25  2  0  0  0
 13 18  4  0  0  0
 13 23  4  0  0  0
 16 14  1  0  0  0
 16 15  1  0  0  0
 16 17  1  0  0  0
 18 26  4  0  0  0
 18 30  4  0  0  0
 19 29  4  0  0  0
 20 37  1  0  0  0
 21 31  1  0  0  0
 21 32  1  0  0  0
 21 33  1  0  0  0
 23 28  4  0  0  0
 26 27  4  0  0  0
 27 28  4  0  0  0
 28 35  1  0  0  0
 29 30  4  0  0  0
 30 34  1  0  0  0
 34 36  1  0  0  0
 37 38  1  0  0  0
 37 39  1  0  0  0
 37 40  1  0  0  0
 41 42  1  0  0  0
 41 43  1  0  0  0
 44 45  1  0  0  0
 44 46  2  0  0  0
 45 47  1  0  0  0
 47 48  2  0  0  0
 47 49  1  0  0  0
 47 50  2  0  0  0
 49 51  1  0  0  0
 49 52  1  0  0  0
 51 52  2  0  0  0
  2 53  1  0  0  0
  3 54  1  0  0  0
  3 55  1  0  0  0
  4 56  1  0  0  0
  7 57  1  0  0  0
  9 58  1  0  0  0
 12 59  1  0  0  0
 14 60  1  0  0  0
 14 61  1  0  0  0
 15 62  1  0  0  0
 15 63  1  0  0  0
 16 64  1  0  0  0
 23 65  1  0  0  0
 26 66  1  0  0  0
 27 67  1  0  0  0
 29 68  1  0  0  0
 31 69  1  0  0  0
 31 70  1  0  0  0
 31 71  1  0  0  0
 32 72  1  0  0  0
 32 73  1  0  0  0
 32 74  1  0  0  0
 33 75  1  0  0  0
 33 76  1  0  0  0
 33 77  1  0  0  0
 36 78  1  0  0  0
 36 79  1  0  0  0
 36 80  1  0  0  0
 38 81  1  0  0  0
 38 82  1  0  0  0
 38 83  1  0  0  0
 39 84  1  0  0  0
 39 85  1  0  0  0
 39 86  1  0  0  0
 40 87  1  0  0  0
 40 88  1  0  0  0
 40 89  1  0  0  0
 41 90  1  0  0  0
 45 91  1  0  0  0
 49 92  1  0  0  0
 51 93  1  0  0  0
 52 94  1  0  0  0
M  END
$$$$
