1n3w_ligand
  -I-interpret- 

 45 46  0  0  0  0  0  0  0  0999 V2000
  113.0970   31.5320   22.6810 C   0  0  0  0  0
  113.9960   30.4370   22.0870 C   0  0  0  0  0
  115.4480   30.9430   22.1000 C   0  0  0  0  0
  115.5440   32.2230   21.2760 C   0  0  0  0  0
  114.5600   33.2570   21.8170 C   0  0  0  0  0
  114.5100   34.4890   20.9370 C   0  0  0  0  0
  113.4690   31.7870   24.0220 O   0  0  0  0  0
  113.8760   29.2370   22.8370 O   0  0  0  0  0
  116.3250   29.9670   21.5730 O   0  0  0  0  0
  116.8630   32.7370   21.3430 O   0  0  0  0  0
  113.2210   32.6980   21.8660 O   0  0  0  0  0
  113.8560   35.5660   21.5940 O   0  0  0  0  0
  111.8420   31.5770   27.8970 C   0  0  0  0  0
  111.5170   30.4090   26.9570 C   0  0  0  0  0
  112.4320   30.4220   25.7250 C   0  0  0  0  0
  112.4390   31.7840   25.0380 C   0  0  0  0  0
  112.7400   32.8800   26.0840 C   0  0  0  0  0
  112.6580   34.2900   25.5140 C   0  0  0  0  0
  113.1140   31.4280   28.4040 O   0  0  0  0  0
  111.6790   29.1820   27.6570 O   0  0  0  0  0
  112.0080   29.4350   24.7980 O   0  0  0  0  0
  111.7960   32.8180   27.1870 O   0  0  0  0  0
  113.4460   35.2010   26.2730 O   0  0  0  0  0
  112.0541   31.2152   22.6917 H   0  0  0  0  0
  113.6916   30.2187   21.0634 H   0  0  0  0  0
  115.7401   31.1445   23.1306 H   0  0  0  0  0
  115.2980   32.0015   20.2375 H   0  0  0  0  0
  114.9036   33.5325   22.8141 H   0  0  0  0  0
  113.9545   34.2463   20.0311 H   0  0  0  0  0
  115.5311   34.7921   20.7057 H   0  0  0  0  0
  112.9640   28.9381   22.8166 H   0  0  0  0  0
  116.2599   29.1644   22.0956 H   0  0  0  0  0
  117.4777   32.0833   21.0018 H   0  0  0  0  0
  113.8395   36.3307   21.0138 H   0  0  0  0  0
  111.1053   31.5792   28.7004 H   0  0  0  0  0
  110.4860   30.5131   26.6190 H   0  0  0  0  0
  113.4444   30.2074   26.0671 H   0  0  0  0  0
  111.4689   31.9788   24.5807 H   0  0  0  0  0
  113.7594   32.6831   26.4158 H   0  0  0  0  0
  111.6191   34.6181   25.5476 H   0  0  0  0  0
  113.0349   34.2735   24.4914 H   0  0  0  0  0
  113.3112   32.1615   28.9911 H   0  0  0  0  0
  111.4758   28.4505   27.0695 H   0  0  0  0  0
  112.5848   29.4494   24.0308 H   0  0  0  0  0
  113.3749   36.0789   25.8912 H   0  0  0  0  0
  1  2  1  0  0  0
  7  1  1  0  0  0
  1 11  1  0  0  0
  2  3  1  0  0  0
  2  8  1  0  0  0
  3  4  1  0  0  0
  3  9  1  0  0  0
  5  4  1  0  0  0
  4 10  1  0  0  0
  5  6  1  0  0  0
 11  5  1  0  0  0
  6 12  1  0  0  0
 16  7  1  0  0  0
 14 13  1  0  0  0
 13 19  1  0  0  0
 13 22  1  0  0  0
 15 14  1  0  0  0
 14 20  1  0  0  0
 15 16  1  0  0  0
 15 21  1  0  0  0
 16 17  1  0  0  0
 17 18  1  0  0  0
 17 22  1  0  0  0
 18 23  1  0  0  0
  1 24  1  0  0  0
  2 25  1  0  0  0
  3 26  1  0  0  0
  4 27  1  0  0  0
  5 28  1  0  0  0
  6 29  1  0  0  0
  6 30  1  0  0  0
  8 31  1  0  0  0
  9 32  1  0  0  0
 10 33  1  0  0  0
 12 34  1  0  0  0
 13 35  1  0  0  0
 14 36  1  0  0  0
 15 37  1  0  0  0
 16 38  1  0  0  0
 17 39  1  0  0  0
 18 40  1  0  0  0
 18 41  1  0  0  0
 19 42  1  0  0  0
 20 43  1  0  0  0
 21 44  1  0  0  0
 23 45  1  0  0  0
M  END
$$$$
