1q8w_ligand
  -I-interpret- 

 38 40  0  0  0  0  0  0  0  0999 V2000
   26.9940   26.9540    9.2830 O   0  0  0  0  0
   27.1860   25.7920    8.4080 S   0  0  0  0  0
   27.9860   26.0500    7.2280 O   0  0  0  0  0
   27.9080   24.6030    9.2490 N   0  0  0  0  0
   27.4130   24.2840   10.6350 C   0  0  0  0  0
   28.4790   24.0170   11.7230 C   0  0  0  0  0
   29.7220   24.8500   11.4750 N   0  3  0  0  0
   30.6460   24.1750   10.4640 C   0  0  0  0  0
   30.3290   24.5740    9.0120 C   0  0  0  0  0
   29.0210   23.8900    8.5770 C   0  0  0  0  0
   25.7240   24.8810    7.9650 C   0  0  0  0  0
   25.7800   23.4940    7.8520 C   0  0  0  0  0
   24.6130   22.7330    7.5170 C   0  0  0  0  0
   23.3990   23.3610    7.3210 C   0  0  0  0  0
   23.3330   24.7720    7.4130 C   0  0  0  0  0
   24.4820   25.5390    7.7340 C   0  0  0  0  0
   24.3120   26.9510    7.8040 C   0  0  0  0  0
   22.1280   25.4500    7.1710 C   0  0  0  0  0
   21.9990   26.7680    7.2870 N   0  0  0  0  0
   23.0920   27.5280    7.5800 C   0  0  0  0  0
   26.8478   23.3567   10.5410 H   0  0  0  0  0
   26.8685   25.1686   10.9654 H   0  0  0  0  0
   28.7518   22.9620   11.6964 H   0  0  0  0  0
   28.0643   24.2851   12.6947 H   0  0  0  0  0
   30.2248   24.9551   12.3562 H   0  0  0  0  0
   29.4379   25.7560   11.1023 H   0  0  0  0  0
   30.5092   23.0973   10.5527 H   0  0  0  0  0
   31.6670   24.4883   10.6821 H   0  0  0  0  0
   31.1428   24.2590    8.3588 H   0  0  0  0  0
   30.2172   25.6562    8.9448 H   0  0  0  0  0
   28.9066   23.9345    7.4939 H   0  0  0  0  0
   29.0270   22.8368    8.8580 H   0  0  0  0  0
   26.7260   22.9795    8.0210 H   0  0  0  0  0
   24.6842   21.6500    7.4161 H   0  0  0  0  0
   22.5047   22.7788    7.0987 H   0  0  0  0  0
   25.1683   27.5828    8.0400 H   0  0  0  0  0
   21.2559   24.8677    6.8736 H   0  0  0  0  0
   22.9924   28.6120    7.6367 H   0  0  0  0  0
  1  2  2  0  0  0
  2  3  2  0  0  0
  2  4  1  0  0  0
  2 11  1  0  0  0
  4  5  1  0  0  0
  4 10  1  0  0  0
  5  6  1  0  0  0
  6  7  1  0  0  0
  7  8  1  0  0  0
  8  9  1  0  0  0
  9 10  1  0  0  0
 11 12  4  0  0  0
 11 16  4  0  0  0
 12 13  4  0  0  0
 13 14  4  0  0  0
 14 15  4  0  0  0
 15 16  4  0  0  0
 15 18  4  0  0  0
 16 17  4  0  0  0
 17 20  4  0  0  0
 18 19  4  0  0  0
 19 20  4  0  0  0
  5 21  1  0  0  0
  5 22  1  0  0  0
  6 23  1  0  0  0
  6 24  1  0  0  0
  7 25  1  0  0  0
  7 26  1  0  0  0
  8 27  1  0  0  0
  8 28  1  0  0  0
  9 29  1  0  0  0
  9 30  1  0  0  0
 10 31  1  0  0  0
 10 32  1  0  0  0
 12 33  1  0  0  0
 13 34  1  0  0  0
 14 35  1  0  0  0
 17 36  1  0  0  0
 18 37  1  0  0  0
 20 38  1  0  0  0
M  END
$$$$
