1gt3_ligand
  -I-interpret- 

 33 32  0  0  0  0  0  0  0  0999 V2000
   -0.7240   -2.6430    9.7040 C   0  0  0  0  0
   -0.4720   -1.8490    8.5330 C   0  0  0  0  0
    0.2670   -2.3320    7.3310 C   0  0  0  0  0
    0.3680   -1.2400    6.2810 C   0  0  0  0  0
   -0.9000   -1.0280    5.5050 C   0  0  0  0  0
   -0.8590    0.3050    4.8190 C   0  0  0  0  0
   -1.8940    0.4780    3.7070 C   0  0  0  0  0
   -1.2740    1.1300    2.5510 C   0  0  0  0  0
   -2.9800    1.3770    4.2100 C   0  0  0  0  0
    1.6520   -2.7400    7.7470 C   0  0  0  0  0
   -2.5570   -0.7850    3.1920 O   0  0  0  0  0
   -1.3056   -3.5222    9.4270 H   0  0  0  0  0
    0.2246   -2.9560   10.1403 H   0  0  0  0  0
   -1.2814   -2.0509   10.4298 H   0  0  0  0  0
    0.1820   -1.0648    8.9143 H   0  0  0  0  0
   -1.4750   -1.6780    8.1420 H   0  0  0  0  0
   -0.2725   -3.1767    6.9026 H   0  0  0  0  0
    1.1378   -1.5416    5.5707 H   0  0  0  0  0
    0.5911   -0.3083    6.8008 H   0  0  0  0  0
   -1.7493   -1.0560    6.1877 H   0  0  0  0  0
   -1.0009   -1.8150    4.7576 H   0  0  0  0  0
    0.1240    0.3958    4.3568 H   0  0  0  0  0
   -1.0743    1.0597    5.5754 H   0  0  0  0  0
   -2.0256    1.2863    1.7772 H   0  0  0  0  0
   -0.8598    2.0909    2.8563 H   0  0  0  0  0
   -0.4769    0.4963    2.1623 H   0  0  0  0  0
   -3.6649    1.6089    3.3943 H   0  0  0  0  0
   -3.5233    0.8754    5.0108 H   0  0  0  0  0
   -2.5399    2.2990    4.5898 H   0  0  0  0  0
    2.1957   -3.1129    6.8790 H   0  0  0  0  0
    2.1743   -1.8777    8.1615 H   0  0  0  0  0
    1.5872   -3.5243    8.5012 H   0  0  0  0  0
   -2.9776   -1.2448    3.9222 H   0  0  0  0  0
  1  2  1  0  0  0
  2  3  1  0  0  0
  3  4  1  0  0  0
  3 10  1  0  0  0
  4  5  1  0  0  0
  5  6  1  0  0  0
  6  7  1  0  0  0
  7  8  1  0  0  0
  7  9  1  0  0  0
  7 11  1  0  0  0
  1 12  1  0  0  0
  1 13  1  0  0  0
  1 14  1  0  0  0
  2 15  1  0  0  0
  2 16  1  0  0  0
  3 17  1  0  0  0
  4 18  1  0  0  0
  4 19  1  0  0  0
  5 20  1  0  0  0
  5 21  1  0  0  0
  6 22  1  0  0  0
  6 23  1  0  0  0
  8 24  1  0  0  0
  8 25  1  0  0  0
  8 26  1  0  0  0
  9 27  1  0  0  0
  9 28  1  0  0  0
  9 29  1  0  0  0
 10 30  1  0  0  0
 10 31  1  0  0  0
 10 32  1  0  0  0
 11 33  1  0  0  0
M  END
$$$$
