4oar_ligand
  -I-interpret- 

 72 76  0  0  0  0  0  0  0  0999 V2000
   14.6120   26.4420   16.7630 C   0  0  0  0  0
   14.8220   27.8180   17.3480 C   0  0  0  0  0
   14.4440   29.0670   16.4020 C   0  0  0  0  0
   14.0010   28.8070   15.1200 C   0  0  0  0  0
   13.9050   27.5120   14.5770 C   0  0  0  0  0
   13.3950   27.4430   13.1360 C   0  0  0  0  0
   14.0670   26.3360   12.3250 C   0  0  0  0  0
   14.2300   25.0090   13.0450 C   0  0  0  0  0
   14.5270   25.0450   14.5900 C   0  0  0  0  0
   14.3520   26.3230   15.3000 C   0  0  0  0  0
   14.9820   23.7010   15.3110 C   0  0  0  0  0
   15.4270   22.6520   14.4330 C   0  0  0  0  0
   14.8640   22.4760   13.0030 C   0  0  0  0  0
   14.8580   23.8010   12.3010 C   0  0  0  0  0
   14.6400   23.4920   10.8220 C   0  0  0  0  0
   15.2600   22.0880   10.6720 C   0  0  0  0  0
   15.7360   21.6480   12.0840 C   0  0  0  0  0
   13.4770   21.8280   13.1250 C   0  0  0  0  0
   15.9430   20.1230   12.2820 C   0  0  0  0  0
   16.6920   19.5260   13.4650 C   0  0  0  0  0
   14.5150   30.2490   16.8900 O   0  0  0  0  0
   15.5180   19.3120   11.4970 O   0  0  0  0  0
   13.7480   23.0950   16.1330 C   0  0  0  0  0
   12.4780   23.6530   16.0270 C   0  0  0  0  0
   11.3910   23.0800   16.6730 C   0  0  0  0  0
   11.5660   21.9330   17.4410 C   0  0  0  0  0
   12.8230   21.3600   17.5560 C   0  0  0  0  0
   13.9060   21.9430   16.9030 C   0  0  0  0  0
   10.4950   21.3880   18.1140 N   0  0  0  0  0
    9.2100   21.8130   17.9310 C   0  0  0  0  0
   10.6430   20.3850   19.0220 C   0  0  0  0  0
   19.8150   22.0430   11.6140 C   0  0  0  0  0
   18.4430   21.4060   11.5110 C   0  0  0  0  0
   18.3270   20.3970   10.7910 O   0  0  0  0  0
   17.2550   21.9660   12.1740 O   0  0  0  0  0
   13.7108   26.0623   17.2443 H   0  0  0  0  0
   15.5518   25.9154   16.9291 H   0  0  0  0  0
   15.8906   27.9019   17.5461 H   0  0  0  0  0
   14.1607   27.8828   18.2120 H   0  0  0  0  0
   13.7098   29.6508   14.4945 H   0  0  0  0  0
   13.6212   28.3946   12.6550 H   0  0  0  0  0
   12.3261   27.2319   13.1690 H   0  0  0  0  0
   15.0714   26.6881   12.0899 H   0  0  0  0  0
   13.4250   26.1467   11.4647 H   0  0  0  0  0
   13.1725   24.7520   12.9839 H   0  0  0  0  0
   15.8263   23.9984   15.9329 H   0  0  0  0  0
   15.1108   21.7425   14.9438 H   0  0  0  0  0
   16.4771   22.8907   14.2646 H   0  0  0  0  0
   15.8062   24.3373   12.3379 H   0  0  0  0  0
   15.0962   24.2302   10.1624 H   0  0  0  0  0
   13.5899   23.5256   10.5316 H   0  0  0  0  0
   16.0956   22.1083    9.9724 H   0  0  0  0  0
   14.5287   21.3840   10.2750 H   0  0  0  0  0
   13.5715   20.8605   13.6180 H   0  0  0  0  0
   12.8257   22.4747   13.7129 H   0  0  0  0  0
   13.0528   21.6905   12.1304 H   0  0  0  0  0
   16.0251   18.8664   14.0202 H   0  0  0  0  0
   17.5480   18.9573   13.1019 H   0  0  0  0  0
   17.0374   20.3283   14.1171 H   0  0  0  0  0
   12.3345   24.5526   15.4284 H   0  0  0  0  0
   10.4018   23.5280   16.5787 H   0  0  0  0  0
   12.9627   20.4592   18.1535 H   0  0  0  0  0
   14.8937   21.4914   16.9952 H   0  0  0  0  0
    9.1376   22.8693   18.1901 H   0  0  0  0  0
    8.9276   21.6734   16.8875 H   0  0  0  0  0
    8.5428   21.2343   18.5698 H   0  0  0  0  0
   11.0889   19.5181   18.5344 H   0  0  0  0  0
   11.2912   20.7218   19.8311 H   0  0  0  0  0
    9.6670   20.1147   19.4252 H   0  0  0  0  0
   20.5212   21.3182   12.0191 H   0  0  0  0  0
   20.1434   22.3576   10.6234 H   0  0  0  0  0
   19.7633   22.9095   12.2733 H   0  0  0  0  0
  1  2  1  0  0  0
 10  1  1  0  0  0
  2  3  1  0  0  0
  4  3  1  0  0  0
  3 21  2  0  0  0
  5  4  2  0  0  0
  6  5  1  0  0  0
 10  5  1  0  0  0
  7  6  1  0  0  0
  8  7  1  0  0  0
  8  9  1  0  0  0
 14  8  1  0  0  0
  9 10  2  0  0  0
 11  9  1  0  0  0
 12 11  1  0  0  0
 11 23  1  0  0  0
 13 12  1  0  0  0
 13 14  1  0  0  0
 17 13  1  0  0  0
 13 18  1  0  0  0
 15 14  1  0  0  0
 16 15  1  0  0  0
 17 16  1  0  0  0
 17 19  1  0  0  0
 35 17  1  0  0  0
 19 20  1  0  0  0
 19 22  2  0  0  0
 23 24  4  0  0  0
 23 28  4  0  0  0
 24 25  4  0  0  0
 25 26  4  0  0  0
 27 26  4  0  0  0
 26 29  1  0  0  0
 28 27  4  0  0  0
 29 30  1  0  0  0
 29 31  1  0  0  0
 33 32  1  0  0  0
 33 34  2  0  0  0
 33 35  1  0  0  0
  1 36  1  0  0  0
  1 37  1  0  0  0
  2 38  1  0  0  0
  2 39  1  0  0  0
  4 40  1  0  0  0
  6 41  1  0  0  0
  6 42  1  0  0  0
  7 43  1  0  0  0
  7 44  1  0  0  0
  8 45  1  0  0  0
 11 46  1  0  0  0
 12 47  1  0  0  0
 12 48  1  0  0  0
 14 49  1  0  0  0
 15 50  1  0  0  0
 15 51  1  0  0  0
 16 52  1  0  0  0
 16 53  1  0  0  0
 18 54  1  0  0  0
 18 55  1  0  0  0
 18 56  1  0  0  0
 20 57  1  0  0  0
 20 58  1  0  0  0
 20 59  1  0  0  0
 24 60  1  0  0  0
 25 61  1  0  0  0
 27 62  1  0  0  0
 28 63  1  0  0  0
 30 64  1  0  0  0
 30 65  1  0  0  0
 30 66  1  0  0  0
 31 67  1  0  0  0
 31 68  1  0  0  0
 31 69  1  0  0  0
 32 70  1  0  0  0
 32 71  1  0  0  0
 32 72  1  0  0  0
M  END
$$$$
