6ge7_ligand
  -I-interpret- 

 59 58  0  0  0  0  0  0  0  0999 V2000
   23.4610   49.0810   57.0490 C   0  0  0  0  0
   22.4700   47.9120   56.9950 C   0  0  0  0  0
   21.3280   48.0730   58.0010 C   0  0  0  0  0
   20.2850   46.9560   57.8690 C   0  0  0  0  0
   19.4080   47.1220   56.6140 C   0  0  0  0  0
   17.2670   48.5430   56.9840 C   0  0  0  0  0
   13.7030   49.8390   56.0290 C   0  0  0  0  0
   11.7330   51.3770   56.0760 C   0  0  0  0  0
   10.2560   51.3690   54.0480 C   0  0  0  0  0
   24.8140   49.9470   52.8820 O   0  0  0  0  0
   25.5680   49.9650   53.8870 C   0  0  0  0  0
   26.6320   50.6130   53.9890 O   0  0  0  0  0
   25.1200   49.1120   55.1270 C   0  0  0  0  0
   23.7750   49.6240   55.6530 C   0  0  0  0  0
   17.8930   47.1160   56.9240 C   0  0  0  0  0
   15.8190   48.5560   56.4550 C   0  0  0  0  0
   15.1310   49.9430   56.5190 C   0  0  0  0  0
   13.0960   51.1380   55.5370 C   0  0  0  0  0
   10.8360   52.1880   55.1720 C   0  0  0  0  0
    8.8880   51.8910   53.6590 C   0  0  0  0  0
    8.5010   51.4660   52.2470 C   0  0  0  0  0
   24.3893   48.7232   57.4945 H   0  0  0  0  0
   23.0135   49.8830   57.6361 H   0  0  0  0  0
   23.0109   46.9981   57.2404 H   0  0  0  0  0
   22.0380   47.8803   55.9947 H   0  0  0  0  0
   20.8343   49.0252   57.8070 H   0  0  0  0  0
   21.7494   48.0292   59.0053 H   0  0  0  0  0
   19.6354   46.9943   58.7434 H   0  0  0  0  0
   20.8142   46.0064   57.7890 H   0  0  0  0  0
   19.6133   46.2793   55.9539 H   0  0  0  0  0
   19.6498   48.0864   56.1674 H   0  0  0  0  0
   17.8657   49.2062   56.3596 H   0  0  0  0  0
   17.2545   48.8681   58.0243 H   0  0  0  0  0
   13.1025   49.5139   56.8786 H   0  0  0  0  0
   13.7114   49.1552   55.1802 H   0  0  0  0  0
   11.8500   51.9426   57.0004 H   0  0  0  0  0
   11.2632   50.4013   56.1999 H   0  0  0  0  0
   10.1587   50.3348   54.3782 H   0  0  0  0  0
   10.9180   51.4352   53.1846 H   0  0  0  0  0
   24.0639   49.3737   53.0563 H   0  0  0  0  0
   25.8701   49.1985   55.9131 H   0  0  0  0  0
   25.0157   48.0692   54.8275 H   0  0  0  0  0
   23.8242   50.7112   55.7133 H   0  0  0  0  0
   22.9926   49.2877   54.9726 H   0  0  0  0  0
   17.7601   46.6576   57.9040 H   0  0  0  0  0
   17.3956   46.5727   56.1206 H   0  0  0  0  0
   15.2404   47.8809   57.0856 H   0  0  0  0  0
   15.8577   48.2646   55.4054 H   0  0  0  0  0
   15.1302   50.2944   57.5508 H   0  0  0  0  0
   15.6764   50.6422   55.8851 H   0  0  0  0  0
   13.0202   51.0808   54.4511 H   0  0  0  0  0
   13.7357   51.9539   55.8735 H   0  0  0  0  0
   11.4347   52.9857   54.7323 H   0  0  0  0  0
   10.0093   52.5682   55.7721 H   0  0  0  0  0
    8.9139   52.9801   53.6942 H   0  0  0  0  0
    8.1545   51.4813   54.3535 H   0  0  0  0  0
    9.2314   51.8565   51.5384 H   0  0  0  0  0
    8.4822   50.3777   52.1888 H   0  0  0  0  0
    7.5137   51.8610   52.0078 H   0  0  0  0  0
  2  1  1  0  0  0
  1 14  1  0  0  0
  3  2  1  0  0  0
  4  3  1  0  0  0
  5  4  1  0  0  0
 15  5  1  0  0  0
  6 15  1  0  0  0
 16  6  1  0  0  0
 17  7  1  0  0  0
  7 18  1  0  0  0
 18  8  1  0  0  0
  8 19  1  0  0  0
 19  9  1  0  0  0
  9 20  1  0  0  0
 11 10  1  0  0  0
 11 12  2  0  0  0
 13 11  1  0  0  0
 14 13  1  0  0  0
 16 17  1  0  0  0
 20 21  1  0  0  0
  1 22  1  0  0  0
  1 23  1  0  0  0
  2 24  1  0  0  0
  2 25  1  0  0  0
  3 26  1  0  0  0
  3 27  1  0  0  0
  4 28  1  0  0  0
  4 29  1  0  0  0
  5 30  1  0  0  0
  5 31  1  0  0  0
  6 32  1  0  0  0
  6 33  1  0  0  0
  7 34  1  0  0  0
  7 35  1  0  0  0
  8 36  1  0  0  0
  8 37  1  0  0  0
  9 38  1  0  0  0
  9 39  1  0  0  0
 10 40  1  0  0  0
 13 41  1  0  0  0
 13 42  1  0  0  0
 14 43  1  0  0  0
 14 44  1  0  0  0
 15 45  1  0  0  0
 15 46  1  0  0  0
 16 47  1  0  0  0
 16 48  1  0  0  0
 17 49  1  0  0  0
 17 50  1  0  0  0
 18 51  1  0  0  0
 18 52  1  0  0  0
 19 53  1  0  0  0
 19 54  1  0  0  0
 20 55  1  0  0  0
 20 56  1  0  0  0
 21 57  1  0  0  0
 21 58  1  0  0  0
 21 59  1  0  0  0
M  END
$$$$
