4oow_ligand
  -I-interpret- 

 14 14  0  0  0  0  0  0  0  0999 V2000
  -31.3470    1.5740   15.7400 C   0  0  0  0  0
  -31.4030    0.2450   15.3170 C   0  0  0  0  0
  -30.2630   -0.5690   15.4350 C   0  0  0  0  0
  -30.2230   -1.8830   15.0630 O   0  0  0  0  0
  -29.0820   -0.0630   15.9640 C   0  0  0  0  0
  -28.0420   -0.9430   16.0380 O   0  0  0  0  0
  -29.0210    1.2710   16.3820 C   0  0  0  0  0
  -30.1570    2.0860   16.2670 C   0  0  0  0  0
  -32.2280    2.2108   15.6598 H   0  0  0  0  0
  -32.3246   -0.1590   14.8980 H   0  0  0  0  0
  -29.3467   -2.2361   15.2335 H   0  0  0  0  0
  -27.2770   -0.5016   16.4142 H   0  0  0  0  0
  -28.0963    1.6745   16.7945 H   0  0  0  0  0
  -30.1119    3.1258   16.5907 H   0  0  0  0  0
  1  2  4  0  0  0
  1  8  4  0  0  0
  2  3  4  0  0  0
  3  4  1  0  0  0
  3  5  4  0  0  0
  5  6  1  0  0  0
  5  7  4  0  0  0
  7  8  4  0  0  0
  1  9  1  0  0  0
  2 10  1  0  0  0
  4 11  1  0  0  0
  6 12  1  0  0  0
  7 13  1  0  0  0
  8 14  1  0  0  0
M  END
$$$$
