5mqt_ligand
  -I-interpret- 

 70 74  0  0  0  0  0  0  0  0999 V2000
  -11.4830  123.7180   28.1080 C   0  0  0  0  0
  -10.4630  124.5100   27.6230 C   0  0  0  0  0
   -9.3390  123.9220   27.0630 C   0  0  0  0  0
   -9.3190  122.5360   27.0090 C   0  0  0  0  0
  -10.2970  121.7520   27.4690 N   0  0  0  0  0
  -11.3560  122.3540   28.0120 C   0  0  0  0  0
   -8.1880  124.7290   26.5910 C   0  0  0  0  0
   -6.9810  124.1510   26.2430 C   0  0  0  0  0
   -5.9750  125.0010   25.8450 C   0  0  0  0  0
   -6.1180  126.3270   25.7890 N   0  0  0  0  0
   -7.3210  126.7890   26.1510 C   0  0  0  0  0
   -8.3730  126.0590   26.5460 N   0  0  0  0  0
   -7.4300  128.1430   26.1060 N   0  0  0  0  0
   -8.4870  128.9940   26.4070 C   0  0  0  0  0
   -9.0450  128.9220   27.6810 C   0  0  0  0  0
  -10.0310  129.8440   28.0050 C   0  0  0  0  0
  -10.4630  130.7990   27.1090 C   0  0  0  0  0
   -9.9150  130.8530   25.8430 C   0  0  0  0  0
   -8.9250  129.9470   25.4920 C   0  0  0  0  0
  -10.3620  131.8230   24.9200 N   0  0  0  0  0
  -11.2410  132.8230   25.1480 C   0  0  0  0  0
  -11.4550  133.7670   24.0130 C   0  0  0  0  0
  -10.7810  133.5630   22.8210 C   0  0  0  0  0
  -10.9690  134.4160   21.7500 C   0  0  0  0  0
  -11.8310  135.4940   21.8380 C   0  0  0  0  0
  -12.4900  135.7080   23.0360 C   0  0  0  0  0
  -12.3110  134.8550   24.1100 C   0  0  0  0  0
  -12.0840  136.3730   20.6370 C   0  0  0  0  0
  -11.6900  137.7760   20.8170 N   0  3  0  0  0
  -10.7640  138.2060   19.7790 C   0  0  0  0  0
  -10.4480  139.6710   19.9330 C   0  0  0  0  0
   -9.8460  139.9390   21.2340 N   0  3  0  0  0
   -9.5730  141.3590   21.3880 C   0  0  0  0  0
  -10.7370  139.4690   22.2900 C   0  0  0  0  0
  -11.0620  138.0030   22.1120 C   0  0  0  0  0
  -11.8390  132.9640   26.2090 O   0  0  0  0  0
   -8.6130  127.8790   28.6740 C   0  0  0  0  0
  -12.3699  124.1648   28.5573 H   0  0  0  0  0
  -10.5404  125.5958   27.6799 H   0  0  0  0  0
   -8.4485  122.0559   26.5621 H   0  0  0  0  0
  -12.1623  121.7312   28.3996 H   0  0  0  0  0
   -6.8334  123.0718   26.2822 H   0  0  0  0  0
   -5.0145  124.5707   25.5616 H   0  0  0  0  0
   -6.5839  128.6206   25.7955 H   0  0  0  0  0
  -10.4777  129.8120   28.9988 H   0  0  0  0  0
  -11.2361  131.5103   27.3999 H   0  0  0  0  0
   -8.4877  129.9816   24.4942 H   0  0  0  0  0
   -9.9789  131.7621   23.9766 H   0  0  0  0  0
  -10.0952  132.7211   22.7263 H   0  0  0  0  0
  -10.4289  134.2362   20.8204 H   0  0  0  0  0
  -13.1603  136.5618   23.1347 H   0  0  0  0  0
  -12.8471  135.0390   25.0410 H   0  0  0  0  0
  -13.1587  136.3638   20.4551 H   0  0  0  0  0
  -11.4845  135.9754   19.8181 H   0  0  0  0  0
  -12.5511  138.3198   20.7596 H   0  0  0  0  0
  -11.2221  138.0417   18.8037 H   0  0  0  0  0
   -9.8413  137.6323   19.8658 H   0  0  0  0  0
  -11.3741  140.2400   19.8511 H   0  0  0  0  0
   -9.7433  139.9616   19.1539 H   0  0  0  0  0
   -8.9592  139.4395   21.3005 H   0  0  0  0  0
   -8.8855  141.6824   20.6064 H   0  0  0  0  0
  -10.5054  141.9178   21.3075 H   0  0  0  0  0
   -9.1242  141.5375   22.3651 H   0  0  0  0  0
  -11.6640  140.0406   22.2456 H   0  0  0  0  0
  -10.2412  139.6031   23.2514 H   0  0  0  0  0
  -10.1390  137.4256   22.1652 H   0  0  0  0  0
  -11.7494  137.6935   22.8992 H   0  0  0  0  0
   -8.8040  126.8874   28.2637 H   0  0  0  0  0
   -7.5478  127.9909   28.8763 H   0  0  0  0  0
   -9.1751  128.0052   29.5993 H   0  0  0  0  0
  1  2  4  0  0  0
  1  6  4  0  0  0
  2  3  4  0  0  0
  3  4  4  0  0  0
  3  7  1  0  0  0
  4  5  4  0  0  0
  5  6  4  0  0  0
  7  8  4  0  0  0
  7 12  4  0  0  0
  8  9  4  0  0  0
  9 10  4  0  0  0
 10 11  4  0  0  0
 11 12  4  0  0  0
 11 13  1  0  0  0
 13 14  1  0  0  0
 14 15  4  0  0  0
 14 19  4  0  0  0
 15 16  4  0  0  0
 15 37  1  0  0  0
 16 17  4  0  0  0
 17 18  4  0  0  0
 18 19  4  0  0  0
 18 20  1  0  0  0
 20 21  1  0  0  0
 21 22  1  0  0  0
 21 36  2  0  0  0
 22 23  4  0  0  0
 22 27  4  0  0  0
 23 24  4  0  0  0
 24 25  4  0  0  0
 25 26  4  0  0  0
 25 28  1  0  0  0
 26 27  4  0  0  0
 28 29  1  0  0  0
 29 30  1  0  0  0
 29 35  1  0  0  0
 30 31  1  0  0  0
 31 32  1  0  0  0
 32 33  1  0  0  0
 32 34  1  0  0  0
 34 35  1  0  0  0
  1 38  1  0  0  0
  2 39  1  0  0  0
  4 40  1  0  0  0
  6 41  1  0  0  0
  8 42  1  0  0  0
  9 43  1  0  0  0
 13 44  1  0  0  0
 16 45  1  0  0  0
 17 46  1  0  0  0
 19 47  1  0  0  0
 20 48  1  0  0  0
 23 49  1  0  0  0
 24 50  1  0  0  0
 26 51  1  0  0  0
 27 52  1  0  0  0
 28 53  1  0  0  0
 28 54  1  0  0  0
 29 55  1  0  0  0
 30 56  1  0  0  0
 30 57  1  0  0  0
 31 58  1  0  0  0
 31 59  1  0  0  0
 32 60  1  0  0  0
 33 61  1  0  0  0
 33 62  1  0  0  0
 33 63  1  0  0  0
 34 64  1  0  0  0
 34 65  1  0  0  0
 35 66  1  0  0  0
 35 67  1  0  0  0
 37 68  1  0  0  0
 37 69  1  0  0  0
 37 70  1  0  0  0
M  END
$$$$
