4rfy_ligand
  -I-interpret- 

 81 86  0  0  0  0  0  0  0  0999 V2000
   21.5900    5.6290    1.2150 C   0  0  0  0  0
   22.8130    5.9140    0.5290 C   0  0  0  0  0
   23.8670    6.3710    1.2600 C   0  0  0  0  0
   23.7080    6.5230    2.6730 C   0  0  0  0  0
   22.5010    6.2330    3.2950 C   0  0  0  0  0
   21.4540    5.7850    2.5610 N   0  0  0  0  0
   20.1400    5.4900    3.2120 C   0  0  0  0  0
   20.6610    5.2210    0.5160 O   0  0  0  0  0
   22.7800    5.7170   -0.8810 N   0  0  0  0  0
   23.7750    5.7820   -1.8300 C   0  0  0  0  0
   23.5030    5.3560   -3.1480 C   0  0  0  0  0
   24.5010    5.4520   -4.0910 C   0  0  0  0  0
   25.7470    5.9730   -3.6910 C   0  0  0  0  0
   25.9390    6.3980   -2.3500 C   0  0  0  0  0
   24.9560    6.2860   -1.4640 N   0  0  0  0  0
   26.8960    6.1530   -4.6290 C   0  0  0  0  0
   27.9680    5.6680   -4.3290 O   0  0  0  0  0
   26.7870    6.9300   -5.7490 N   0  0  0  0  0
   27.9820    7.1160   -6.6370 C   0  0  0  0  0
   27.6000    7.6340   -8.0340 C   0  0  0  0  0
   26.6610    8.7160   -7.8790 O   0  0  0  0  0
   25.4000    8.1420   -7.5330 C   0  0  0  0  0
   25.4920    7.6120   -6.0940 C   0  0  0  0  0
   24.8810    6.9830    3.4740 C   0  0  0  0  0
   26.1220    6.3530    3.1860 C   0  0  0  0  0
   27.2890    6.6900    3.8580 C   0  0  0  0  0
   27.2450    7.6600    4.8980 C   0  0  0  0  0
   26.0310    8.3060    5.1780 C   0  0  0  0  0
   24.8420    7.9490    4.5150 C   0  0  0  0  0
   23.5120    8.6560    4.7630 C   0  0  0  0  0
   25.9220    9.2680    6.2290 N   0  0  0  0  0
   26.0350   10.7020    5.8430 C   0  0  0  0  0
   25.0780   11.5270    6.6800 C   0  0  0  0  0
   25.7490    8.8580    7.5170 C   0  0  0  0  0
   25.5020    9.8860    8.5650 C   0  0  0  0  0
   25.1250   11.2020    8.1370 C   0  0  0  0  0
   24.7950   12.1560    9.0890 C   0  0  0  0  0
   24.7660   11.7920   10.4680 C   0  0  0  0  0
   25.1560   10.4960   10.8870 C   0  0  0  0  0
   25.4710    9.5360    9.9230 C   0  0  0  0  0
   24.4440   12.7410   11.4750 N   0  0  0  0  0
   23.7620   14.0300   11.1060 C   0  0  0  0  0
   24.6990   12.4970   12.8840 C   0  0  0  0  0
   25.6630    7.6500    7.8360 O   0  0  0  0  0
   22.8460    8.1810    5.9580 O   0  0  0  0  0
   24.8132    6.6161    0.7777 H   0  0  0  0  0
   22.3960    6.3655    4.3718 H   0  0  0  0  0
   20.2759    4.7164    3.9677 H   0  0  0  0  0
   19.7575    6.3959    3.6823 H   0  0  0  0  0
   19.4324    5.1435    2.4587 H   0  0  0  0  0
   21.8582    5.4877   -1.2526 H   0  0  0  0  0
   22.5231    4.9593   -3.4134 H   0  0  0  0  0
   24.3317    5.1334   -5.1196 H   0  0  0  0  0
   26.8978    6.8182   -2.0462 H   0  0  0  0  0
   28.4664    6.1470   -6.7576 H   0  0  0  0  0
   28.6364    7.8530   -6.1715 H   0  0  0  0  0
   27.1500    6.8314   -8.6184 H   0  0  0  0  0
   28.4896    7.9852   -8.5569 H   0  0  0  0  0
   25.1584    7.3285   -8.2171 H   0  0  0  0  0
   24.6138    8.8934   -7.6058 H   0  0  0  0  0
   25.4060    8.4757   -5.4346 H   0  0  0  0  0
   24.7046    6.8666   -5.9824 H   0  0  0  0  0
   26.1585    5.5831    2.4153 H   0  0  0  0  0
   28.2328    6.2147    3.5907 H   0  0  0  0  0
   28.1421    7.8981    5.4695 H   0  0  0  0  0
   22.8606    8.4551    3.9125 H   0  0  0  0  0
   23.7150    9.7192    4.8912 H   0  0  0  0  0
   25.7855   10.8152    4.7880 H   0  0  0  0  0
   27.0555   11.0450    6.0135 H   0  0  0  0  0
   24.0685   11.3118    6.3296 H   0  0  0  0  0
   25.3649   12.5727    6.5690 H   0  0  0  0  0
   24.5597   13.1761    8.7854 H   0  0  0  0  0
   25.2095   10.2515   11.9479 H   0  0  0  0  0
   25.6932    8.5129   10.2263 H   0  0  0  0  0
   24.3911   14.5865   10.4112 H   0  0  0  0  0
   22.8039   13.8107   10.6348 H   0  0  0  0  0
   23.5986   14.6236   12.0055 H   0  0  0  0  0
   24.1490   11.6118   13.2035 H   0  0  0  0  0
   25.7665   12.3378   13.0365 H   0  0  0  0  0
   24.3722   13.3589   13.4657 H   0  0  0  0  0
   22.0179    8.6534    6.0707 H   0  0  0  0  0
  1  2  1  0  0  0
  1  6  1  0  0  0
  1  8  2  0  0  0
  2  3  2  0  0  0
  2  9  1  0  0  0
  3  4  1  0  0  0
  4  5  2  0  0  0
  4 24  1  0  0  0
  5  6  1  0  0  0
  6  7  1  0  0  0
  9 10  1  0  0  0
 10 11  4  0  0  0
 10 15  4  0  0  0
 11 12  4  0  0  0
 12 13  4  0  0  0
 13 14  4  0  0  0
 13 16  1  0  0  0
 14 15  4  0  0  0
 16 17  2  0  0  0
 16 18  1  0  0  0
 18 19  1  0  0  0
 18 23  1  0  0  0
 19 20  1  0  0  0
 20 21  1  0  0  0
 21 22  1  0  0  0
 22 23  1  0  0  0
 24 25  4  0  0  0
 24 29  4  0  0  0
 25 26  4  0  0  0
 26 27  4  0  0  0
 27 28  4  0  0  0
 28 29  4  0  0  0
 28 31  1  0  0  0
 29 30  1  0  0  0
 30 45  1  0  0  0
 31 32  1  0  0  0
 31 34  1  0  0  0
 32 33  1  0  0  0
 33 36  1  0  0  0
 34 35  1  0  0  0
 34 44  2  0  0  0
 35 36  4  0  0  0
 35 40  4  0  0  0
 36 37  4  0  0  0
 37 38  4  0  0  0
 38 39  4  0  0  0
 38 41  1  0  0  0
 39 40  4  0  0  0
 41 42  1  0  0  0
 41 43  1  0  0  0
  3 46  1  0  0  0
  5 47  1  0  0  0
  7 48  1  0  0  0
  7 49  1  0  0  0
  7 50  1  0  0  0
  9 51  1  0  0  0
 11 52  1  0  0  0
 12 53  1  0  0  0
 14 54  1  0  0  0
 19 55  1  0  0  0
 19 56  1  0  0  0
 20 57  1  0  0  0
 20 58  1  0  0  0
 22 59  1  0  0  0
 22 60  1  0  0  0
 23 61  1  0  0  0
 23 62  1  0  0  0
 25 63  1  0  0  0
 26 64  1  0  0  0
 27 65  1  0  0  0
 30 66  1  0  0  0
 30 67  1  0  0  0
 32 68  1  0  0  0
 32 69  1  0  0  0
 33 70  1  0  0  0
 33 71  1  0  0  0
 37 72  1  0  0  0
 39 73  1  0  0  0
 40 74  1  0  0  0
 42 75  1  0  0  0
 42 76  1  0  0  0
 42 77  1  0  0  0
 43 78  1  0  0  0
 43 79  1  0  0  0
 43 80  1  0  0  0
 45 81  1  0  0  0
M  END
$$$$
