4tun_ligand
  -I-interpret- 

 27 26  0  0  0  0  0  0  0  0999 V2000
   -4.3050   14.5320    4.6260 O   0  0  0  0  0
   -3.9500   16.0450    4.2510 P   0  0  0  0  0
   -4.4970   17.1650    5.3780 O   0  0  0  0  0
   -3.6140   17.6260    6.3840 C   0  0  0  0  0
   -3.9680   16.4930    2.8170 O   0  0  0  0  0
   -5.5010   15.9420    4.0220 O   0  0  0  0  0
   -6.0620   15.2890    2.8990 C   0  0  0  0  0
   -6.5130   13.8940    3.3750 C   0  0  0  0  0
   -7.2600   16.1590    2.4700 C   0  0  0  0  0
   -7.8280   15.8930    1.0650 C   0  0  0  0  0
   -7.5640   14.8480    0.5090 O   0  0  0  0  0
   -8.6280   16.8760    0.5550 N   0  0  0  0  0
   -9.2560   16.7680   -0.7590 C   0  0  0  0  0
   -4.2461   14.4170    5.5773 H   0  0  0  0  0
   -3.2764   16.7812    6.9844 H   0  0  0  0  0
   -2.7549   18.1087    5.9182 H   0  0  0  0  0
   -4.1333   18.3418    7.0213 H   0  0  0  0  0
   -5.3768   15.1660    2.0603 H   0  0  0  0  0
   -7.1829   14.0016    4.2280 H   0  0  0  0  0
   -7.0343   13.3857    2.5638 H   0  0  0  0  0
   -5.6396   13.3117    3.6685 H   0  0  0  0  0
   -6.9002   17.1879    2.4619 H   0  0  0  0  0
   -8.0645   15.9338    3.1701 H   0  0  0  0  0
   -8.7924   17.7148    1.1115 H   0  0  0  0  0
   -8.4842   16.6655   -1.5218 H   0  0  0  0  0
   -9.9065   15.8936   -0.7786 H   0  0  0  0  0
   -9.8444   17.6646   -0.9538 H   0  0  0  0  0
  1  2  1  0  0  0
  2  3  1  0  0  0
  2  5  2  0  0  0
  2  6  1  0  0  0
  3  4  1  0  0  0
  6  7  1  0  0  0
  7  8  1  0  0  0
  7  9  1  0  0  0
  9 10  1  0  0  0
 10 11  2  0  0  0
 10 12  1  0  0  0
 12 13  1  0  0  0
  1 14  1  0  0  0
  4 15  1  0  0  0
  4 16  1  0  0  0
  4 17  1  0  0  0
  7 18  1  0  0  0
  8 19  1  0  0  0
  8 20  1  0  0  0
  8 21  1  0  0  0
  9 22  1  0  0  0
  9 23  1  0  0  0
 12 24  1  0  0  0
 13 25  1  0  0  0
 13 26  1  0  0  0
 13 27  1  0  0  0
M  END
$$$$
