3zm9_ligand
  -I-interpret- 

 72 76  0  0  0  0  0  0  0  0999 V2000
   -9.4750   12.8270   -2.3820 C   0  0  0  0  0
   -9.0910   12.8470   -3.8110 N   0  0  0  0  0
   -8.1510   11.8420   -4.3640 C   0  0  0  0  0
   -9.6500   13.7720   -4.6430 C   0  0  0  0  0
   -9.4850   13.6890   -6.0430 C   0  0  0  0  0
  -10.0590   14.6280   -6.9160 C   0  0  0  0  0
  -10.4100   14.8340   -4.1270 C   0  0  0  0  0
  -10.9940   15.7780   -4.9860 C   0  0  0  0  0
  -10.8350   15.7040   -6.3870 N   0  0  0  0  0
  -11.4860   16.7320   -7.2850 C   0  0  0  0  0
  -12.5080   16.1580   -8.0850 C   0  0  0  0  0
  -12.7380   16.6060   -9.3950 C   0  0  0  0  0
  -13.7460   16.0210  -10.1740 C   0  0  0  0  0
  -13.3050   15.1160   -7.5840 C   0  0  0  0  0
  -14.3070   14.5260   -8.3570 C   0  0  0  0  0
  -14.5370   14.9800   -9.6620 C   0  0  0  0  0
  -15.5370   14.3720  -10.4480 C   0  0  0  0  0
  -15.0500   12.9510  -10.8560 C   0  0  0  0  0
  -15.6760   12.4430  -12.1720 C   0  0  0  0  0
  -15.2490   10.9720  -12.4240 C   0  0  0  0  0
  -16.2680   10.1870  -13.0230 C   0  0  0  0  0
  -16.6620   10.3750  -14.3620 C   0  0  0  0  0
  -17.6740    9.5830  -14.9390 C   0  0  0  0  0
  -16.8910    9.1810  -12.2760 C   0  0  0  0  0
  -17.9000    8.3910  -12.8570 C   0  0  0  0  0
  -18.2940    8.5750  -14.1870 C   0  0  0  0  0
  -19.3160    7.7750  -14.7490 C   0  0  0  0  0
  -18.8470    6.3630  -15.1670 N   0  0  0  0  0
  -17.6580    5.7950  -14.9480 C   0  0  0  0  0
  -17.6520    4.5670  -15.4550 N   0  0  0  0  0
  -18.8450    4.3610  -16.0070 C   0  0  0  0  0
  -19.5870    5.4690  -15.8190 C   0  0  0  0  0
  -20.8410    5.5480  -16.2860 N   0  0  0  0  0
  -21.3880    4.4570  -16.9650 C   0  0  0  0  0
  -20.5900    3.3230  -17.1320 N   0  0  0  0  0
  -19.3320    3.3020  -16.6540 C   0  0  0  0  0
  -18.5120    2.2330  -16.7950 N   0  0  0  0  0
   -9.2250   13.7852   -1.9265 H   0  0  0  0  0
  -10.5476   12.6520   -2.2977 H   0  0  0  0  0
   -8.9343   12.0291   -1.8729 H   0  0  0  0  0
   -8.6608   11.2486   -5.1230 H   0  0  0  0  0
   -7.2981   12.3519   -4.8119 H   0  0  0  0  0
   -7.8057   11.1894   -3.5621 H   0  0  0  0  0
   -8.8948   12.8722   -6.4585 H   0  0  0  0  0
  -10.7622   14.0511   -7.5166 H   0  0  0  0  0
   -9.2089   15.1123   -7.3965 H   0  0  0  0  0
  -10.5477   14.9261   -3.0497 H   0  0  0  0  0
  -11.5853   16.5889   -4.5607 H   0  0  0  0  0
  -10.7229   17.1433   -7.9457 H   0  0  0  0  0
  -11.9334   17.5025   -6.6571 H   0  0  0  0  0
  -12.1308   17.4115   -9.8081 H   0  0  0  0  0
  -13.9178   16.3785  -11.1893 H   0  0  0  0  0
  -13.1375   14.7594   -6.5677 H   0  0  0  0  0
  -14.9082   13.7148   -7.9463 H   0  0  0  0  0
  -15.7246   14.9708  -11.3393 H   0  0  0  0  0
  -16.4636   14.2982   -9.8787 H   0  0  0  0  0
  -15.3455   12.2625  -10.0643 H   0  0  0  0  0
  -13.9713   13.0032  -11.0039 H   0  0  0  0  0
  -15.3317   13.0648  -12.9984 H   0  0  0  0  0
  -16.7622   12.4953  -12.0981 H   0  0  0  0  0
  -15.0152   10.5264  -11.4571 H   0  0  0  0  0
  -14.4002   10.9877  -13.1077 H   0  0  0  0  0
  -16.1763   11.1453  -14.9611 H   0  0  0  0  0
  -17.9757    9.7541  -15.9723 H   0  0  0  0  0
  -16.5939    9.0090  -11.2415 H   0  0  0  0  0
  -18.3848    7.6196  -12.2586 H   0  0  0  0  0
  -19.6653    8.2804  -15.6493 H   0  0  0  0  0
  -20.0851    7.6489  -13.9870 H   0  0  0  0  0
  -16.8213    6.2665  -14.4326 H   0  0  0  0  0
  -22.4062    4.4895  -17.3526 H   0  0  0  0  0
  -17.5665    2.2617  -16.4135 H   0  0  0  0  0
  -18.8401    1.3994  -17.2827 H   0  0  0  0  0
  1  2  1  0  0  0
  2  3  1  0  0  0
  2  4  1  0  0  0
  4  5  2  0  0  0
  4  7  1  0  0  0
  5  6  1  0  0  0
  6  9  1  0  0  0
  7  8  2  0  0  0
  8  9  1  0  0  0
  9 10  1  0  0  0
 10 11  1  0  0  0
 11 12  4  0  0  0
 11 14  4  0  0  0
 12 13  4  0  0  0
 13 16  4  0  0  0
 14 15  4  0  0  0
 15 16  4  0  0  0
 16 17  1  0  0  0
 17 18  1  0  0  0
 18 19  1  0  0  0
 19 20  1  0  0  0
 20 21  1  0  0  0
 21 22  4  0  0  0
 21 24  4  0  0  0
 22 23  4  0  0  0
 23 26  4  0  0  0
 24 25  4  0  0  0
 25 26  4  0  0  0
 26 27  1  0  0  0
 27 28  1  0  0  0
 28 29  4  0  0  0
 28 32  4  0  0  0
 29 30  4  0  0  0
 30 31  4  0  0  0
 31 32  4  0  0  0
 31 36  4  0  0  0
 32 33  4  0  0  0
 33 34  4  0  0  0
 34 35  4  0  0  0
 35 36  4  0  0  0
 36 37  1  0  0  0
  1 38  1  0  0  0
  1 39  1  0  0  0
  1 40  1  0  0  0
  3 41  1  0  0  0
  3 42  1  0  0  0
  3 43  1  0  0  0
  5 44  1  0  0  0
  6 45  1  0  0  0
  6 46  1  0  0  0
  7 47  1  0  0  0
  8 48  1  0  0  0
 10 49  1  0  0  0
 10 50  1  0  0  0
 12 51  1  0  0  0
 13 52  1  0  0  0
 14 53  1  0  0  0
 15 54  1  0  0  0
 17 55  1  0  0  0
 17 56  1  0  0  0
 18 57  1  0  0  0
 18 58  1  0  0  0
 19 59  1  0  0  0
 19 60  1  0  0  0
 20 61  1  0  0  0
 20 62  1  0  0  0
 22 63  1  0  0  0
 23 64  1  0  0  0
 24 65  1  0  0  0
 25 66  1  0  0  0
 27 67  1  0  0  0
 27 68  1  0  0  0
 29 69  1  0  0  0
 34 70  1  0  0  0
 37 71  1  0  0  0
 37 72  1  0  0  0
M  END
$$$$
