4hod_ligand
  -I-interpret- 

 23 22  0  0  0  0  0  0  0  0999 V2000
  -19.5130  -11.7140   19.2240 N   0  3  0  0  0
  -18.2180  -12.3820   19.1530 C   0  0  0  0  0
  -18.3010  -13.6760   18.3560 C   0  0  0  0  0
  -17.2760  -14.3280   18.1440 O   0  0  0  0  0
  -17.7170  -12.6930   20.5600 C   0  0  0  0  0
  -17.3330  -11.4680   21.3840 C   0  0  0  0  0
  -16.7870  -11.9040   22.7310 C   0  0  0  0  0
  -16.3080  -10.6570   20.6140 C   0  0  0  0  0
  -19.3850  -14.0930   17.9300 O   0  0  0  0  0
  -19.8410  -11.5096   18.2801 H   0  0  0  0  0
  -20.1831  -12.3230   19.6936 H   0  0  0  0  0
  -19.4172  -10.8440   19.7478 H   0  0  0  0  0
  -17.5251  -11.7090   18.6480 H   0  0  0  0  0
  -16.8163  -13.2970   20.4502 H   0  0  0  0  0
  -18.5341  -13.1865   21.0863 H   0  0  0  0  0
  -18.2101  -10.8461   21.5631 H   0  0  0  0  0
  -15.8988  -12.5176   22.5802 H   0  0  0  0  0
  -16.5265  -11.0235   23.3183 H   0  0  0  0  0
  -17.5449  -12.4831   23.2586 H   0  0  0  0  0
  -16.0444   -9.7684   21.1876 H   0  0  0  0  0
  -15.4167  -11.2625   20.4495 H   0  0  0  0  0
  -16.7290  -10.3595   19.6536 H   0  0  0  0  0
  -20.0812  -13.4790   18.1746 H   0  0  0  0  0
  1  2  1  0  0  0
  2  3  1  0  0  0
  2  5  1  0  0  0
  3  4  2  0  0  0
  3  9  1  0  0  0
  5  6  1  0  0  0
  6  7  1  0  0  0
  6  8  1  0  0  0
  1 10  1  0  0  0
  1 11  1  0  0  0
  1 12  1  0  0  0
  2 13  1  0  0  0
  5 14  1  0  0  0
  5 15  1  0  0  0
  6 16  1  0  0  0
  7 17  1  0  0  0
  7 18  1  0  0  0
  7 19  1  0  0  0
  8 20  1  0  0  0
  8 21  1  0  0  0
  8 22  1  0  0  0
  9 23  1  0  0  0
M  END
$$$$
