3p78_ligand
  -I-interpret- 

 60 63  0  0  0  0  0  0  0  0999 V2000
   49.0470   27.1760  -18.0870 C   0  0  0  0  0
   52.2530   31.2360  -11.7680 O   0  0  0  0  0
   51.5420   29.7070  -11.8960 S   0  0  0  0  0
   57.4690   31.3380  -21.9820 C   0  0  0  0  0
   50.1770   28.0740  -19.0220 S   0  0  0  0  0
   51.3360   28.3070  -17.7700 C   0  0  0  0  0
   50.7700   27.6600  -16.6580 C   0  0  0  0  0
   49.5380   27.0380  -16.7920 C   0  0  0  0  0
   47.7520   26.7040  -18.6560 C   0  0  0  0  0
   48.0220   25.5780  -19.6320 C   0  0  0  0  0
   46.6430   26.4660  -17.6240 C   0  0  0  0  0
   47.2290   27.6660  -19.7180 C   0  0  0  0  0
   51.6030   27.6510  -15.3950 C   0  0  0  0  0
   56.4400   33.8880  -22.4530 C   0  0  0  0  0
   52.8150   27.5820  -15.5510 O   0  0  0  0  0
   57.5950   33.4620  -23.1500 C   0  0  0  0  0
   52.5620   28.9430  -17.8060 N   0  0  0  0  0
   52.8110   29.8740  -18.7630 C   0  0  0  0  0
   58.1380   32.1780  -22.9220 C   0  0  0  0  0
   51.8270   30.2130  -19.6360 O   0  0  0  0  0
   53.9930   30.4170  -18.8160 N   0  0  0  0  0
   54.4870   31.3240  -19.6860 C   0  0  0  0  0
   53.9700   32.5990  -19.9270 C   0  0  0  0  0
   54.6220   33.4320  -20.8430 C   0  0  0  0  0
   55.7920   33.0290  -21.5280 C   0  0  0  0  0
   56.3180   31.7600  -21.2880 C   0  0  0  0  0
   55.6520   30.9270  -20.3680 C   0  0  0  0  0
   51.1250   27.6490  -14.1140 N   0  0  0  0  0
   49.9140   28.3480  -13.7060 C   0  0  0  0  0
   50.3170   29.7170  -13.1100 C   0  0  0  0  0
   52.7460   28.6650  -12.5410 C   0  0  0  0  0
   52.1310   27.3610  -13.0730 C   0  0  0  0  0
   50.8220   28.7790  -10.6750 O   0  0  0  0  0
   57.8610   30.3383  -21.7951 H   0  0  0  0  0
   49.0223   26.5108  -15.9894 H   0  0  0  0  0
   48.3144   24.6839  -19.0814 H   0  0  0  0  0
   47.1190   25.3730  -20.2071 H   0  0  0  0  0
   48.8262   25.8695  -20.3076 H   0  0  0  0  0
   45.7000   26.2871  -18.1406 H   0  0  0  0  0
   46.8954   25.5980  -17.0149 H   0  0  0  0  0
   46.5480   27.3443  -16.9855 H   0  0  0  0  0
   48.0080   27.8456  -20.4590 H   0  0  0  0  0
   46.3569   27.2290  -20.2044 H   0  0  0  0  0
   46.9497   28.6084  -19.2468 H   0  0  0  0  0
   56.0432   34.8879  -22.6286 H   0  0  0  0  0
   58.0698   34.1299  -23.8688 H   0  0  0  0  0
   53.2777   28.7141  -17.1162 H   0  0  0  0  0
   59.0338   31.8416  -23.4441 H   0  0  0  0  0
   54.6433   30.1116  -18.0920 H   0  0  0  0  0
   53.0730   32.9396  -19.4098 H   0  0  0  0  0
   54.2146   34.4246  -21.0351 H   0  0  0  0  0
   56.0561   29.9330  -20.1763 H   0  0  0  0  0
   49.3776   27.7605  -12.9609 H   0  0  0  0  0
   49.2601   28.4938  -14.5658 H   0  0  0  0  0
   50.7225   30.2965  -13.9393 H   0  0  0  0  0
   49.4213   30.1086  -12.6279 H   0  0  0  0  0
   53.4510   28.4172  -11.7475 H   0  0  0  0  0
   53.2411   29.1766  -13.3664 H   0  0  0  0  0
   52.9217   26.7479  -13.5055 H   0  0  0  0  0
   51.6470   26.8365  -12.2491 H   0  0  0  0  0
  1  5  4  0  0  0
  8  1  4  0  0  0
  1  9  1  0  0  0
  3  2  2  0  0  0
 30  3  1  0  0  0
  3 31  1  0  0  0
  3 33  2  0  0  0
  4 19  4  0  0  0
 26  4  4  0  0  0
  6  5  4  0  0  0
  7  6  4  0  0  0
  6 17  1  0  0  0
  7  8  4  0  0  0
 13  7  1  0  0  0
  9 10  1  0  0  0
  9 11  1  0  0  0
  9 12  1  0  0  0
 13 15  2  0  0  0
 28 13  1  0  0  0
 14 16  4  0  0  0
 25 14  4  0  0  0
 19 16  4  0  0  0
 17 18  1  0  0  0
 18 20  2  0  0  0
 18 21  1  0  0  0
 21 22  1  0  0  0
 22 23  4  0  0  0
 22 27  4  0  0  0
 23 24  4  0  0  0
 24 25  4  0  0  0
 26 25  4  0  0  0
 27 26  4  0  0  0
 29 28  1  0  0  0
 28 32  1  0  0  0
 29 30  1  0  0  0
 31 32  1  0  0  0
  4 34  1  0  0  0
  8 35  1  0  0  0
 10 36  1  0  0  0
 10 37  1  0  0  0
 10 38  1  0  0  0
 11 39  1  0  0  0
 11 40  1  0  0  0
 11 41  1  0  0  0
 12 42  1  0  0  0
 12 43  1  0  0  0
 12 44  1  0  0  0
 14 45  1  0  0  0
 16 46  1  0  0  0
 17 47  1  0  0  0
 19 48  1  0  0  0
 21 49  1  0  0  0
 23 50  1  0  0  0
 24 51  1  0  0  0
 27 52  1  0  0  0
 29 53  1  0  0  0
 29 54  1  0  0  0
 30 55  1  0  0  0
 30 56  1  0  0  0
 31 57  1  0  0  0
 31 58  1  0  0  0
 32 59  1  0  0  0
 32 60  1  0  0  0
M  END
$$$$
