### 
### Created by X-TOOL on Mon Sep 10 21:12:47 2018
### 

@<TRIPOS>MOLECULE
1fyr_ligand
   77    77     1     0     0
SMALL
GAST_HUCK


@<TRIPOS>ATOM
      1 C          26.3740    9.4890   67.0550 C.2       1 ACE         0.1753
      2 O          27.4970   10.0050   67.1970 O.2       1 ACE        -0.3972
      3 CH3        25.6600    9.5590   65.6910 C.3       1 ACE         0.0258
      4 N          25.7980    8.7920   68.0250 N.am      1 PTR        -0.2628
      5 CA         26.4000    8.7150   69.3490 C.3       1 PTR         0.1468
      6 C          26.6290    7.2670   69.7130 C.2       1 PTR         0.2074
      7 O          25.7600    6.4090   69.4950 O.2       1 PTR        -0.3941
      8 CB         25.4780    9.3980   70.3450 C.3       1 PTR         0.0400
      9 CG         25.1670   10.8210   69.9540 C.ar      1 PTR        -0.0004
     10 CD1        24.0230   11.1220   69.2490 C.ar      1 PTR        -0.0239
     11 CD2        26.0180   11.8650   70.2970 C.ar      1 PTR        -0.0239
     12 CE1        23.7200   12.4270   68.8930 C.ar      1 PTR         0.0115
     13 CE2        25.7350   13.1770   69.9460 C.ar      1 PTR         0.0115
     14 CZ         24.5740   13.4560   69.2410 C.ar      1 PTR         0.1728
     15 OH         24.2370   14.7660   68.8980 O.3       1 PTR        -0.2040
     16 P          25.1940   15.7870   68.2270 P.3       1 PTR         0.1348
     17 O1P        25.4080   16.8970   69.1890 O.co2     1 PTR        -0.6653
     18 O2P        26.4760   15.1530   67.8590 O.co2     1 PTR        -0.6653
     19 O3P        24.5070   16.3760   67.0310 O.co2     1 PTR        -0.6653
     20 N          27.8170    6.8830   70.1660 N.am      1 VAL        -0.2632
     21 CA         28.2240    5.5240   70.5980 C.3       1 VAL         0.1333
     22 C          27.2290    4.9030   71.5850 C.2       1 VAL         0.2043
     23 O          26.9840    3.7000   71.5610 O.2       1 VAL        -0.3944
     24 CB         29.6160    5.5830   71.2510 C.3       1 VAL        -0.0063
     25 CG1        30.0080    4.2120   71.7890 C.3       1 VAL        -0.0584
     26 CG2        30.6430    6.0680   70.2270 C.3       1 VAL        -0.0584
     27 N          26.6380    5.7360   72.4320 N.am      1 ASN        -0.2616
     28 CA         25.7170    5.2670   73.4600 C.3       1 ASN         0.1475
     29 C          24.2240    5.4420   73.1810 C.2       1 ASN         0.2057
     30 O          23.4270    5.4560   74.1160 O.2       1 ASN        -0.3942
     31 CB         26.0610    5.9570   74.7750 C.3       1 ASN         0.0773
     32 CG         25.7590    7.4420   74.7390 C.2       1 ASN         0.1780
     33 OD1        25.8870    8.0810   73.6940 O.2       1 ASN        -0.3970
     34 ND2        25.3650    8.0000   75.8760 N.am      1 ASN        -0.3007
     35 N          23.8380    5.5800   71.9160 N.am      1 VAL        -0.2691
     36 CA         22.4220    5.7370   71.5830 C.3       1 VAL         0.0967
     37 C          21.9790    4.7900   70.4750 C.2       1 VAL         0.0603
     38 O          22.5120    4.8930   69.3500 O.co2     1 VAL        -0.5666
     39 CB         22.0880    7.1820   71.1540 C.3       1 VAL        -0.0118
     40 CG1        20.6190    7.2770   70.7650 C.3       1 VAL        -0.0590
     41 CG2        22.3940    8.1530   72.3000 C.3       1 VAL        -0.0590
     42 OXT        21.1010    3.9430   70.7560 O.co2     1 VAL        -0.5666
     43 H1         24.6865    9.0516   65.7603 H         1 ACE         0.0467
     44 H2         26.2781    9.0637   64.9277 H         1 ACE         0.0467
     45 H3         25.5057   10.6116   65.4115 H         1 ACE         0.0467
     46 H4         24.9389    8.3129   67.8450 H         1 PTR         0.1885
     47 H5         27.3681    9.2371   69.3411 H         1 PTR         0.0840
     48 H6         25.9631    9.4004   71.3322 H         1 PTR         0.0584
     49 H7         24.5361    8.8325   70.4006 H         1 PTR         0.0584
     50 H8         23.3466   10.3232   68.9671 H         1 PTR         0.0703
     51 H9         26.9239   11.6491   70.8517 H         1 PTR         0.0703
     52 H10        22.8119   12.6405   68.3409 H         1 PTR         0.0736
     53 H11        26.4145   13.9759   70.2201 H         1 PTR         0.0736
     54 H12        28.5189    7.5931   70.2223 H         1 VAL         0.1883
     55 H13        28.2756    4.8803   69.7075 H         1 VAL         0.0802
     56 H14        29.5859    6.2951   72.0888 H         1 VAL         0.0343
     57 H15        31.0041    4.2709   72.2520 H         1 VAL         0.0234
     58 H16        30.0302    3.4864   70.9626 H         1 VAL         0.0234
     59 H17        29.2728    3.8892   72.5408 H         1 VAL         0.0234
     60 H18        30.3452    7.0573   69.8494 H         1 VAL         0.0234
     61 H19        30.6912    5.3555   69.3903 H         1 VAL         0.0234
     62 H20        31.6312    6.1401   70.7047 H         1 VAL         0.0234
     63 H21        26.8302    6.7149   72.3631 H         1 ASN         0.1885
     64 H22        25.8935    4.1876   73.5775 H         1 ASN         0.0826
     65 H23        27.1332    5.8185   74.9778 H         1 ASN         0.0551
     66 H24        25.4726    5.4954   75.5817 H         1 ASN         0.0551
     67 H25        25.1531    8.9768   75.9065 H         1 ASN         0.1814
     68 H26        25.2798    7.4439   76.7027 H         1 ASN         0.1814
     69 H27        24.5214    5.5764   71.1860 H         1 VAL         0.1875
     70 H28        21.8413    5.5027   72.4874 H         1 VAL         0.0729
     71 H29        22.7064    7.4497   70.2846 H         1 VAL         0.0336
     72 H30        20.3863    8.3080   70.4603 H         1 VAL         0.0234
     73 H31        19.9930    6.9990   71.6257 H         1 VAL         0.0234
     74 H32        20.4163    6.5928   69.9279 H         1 VAL         0.0234
     75 H33        23.4570    8.0756   72.5722 H         1 VAL         0.0234
     76 H34        21.7729    7.8989   73.1716 H         1 VAL         0.0234
     77 H35        22.1718    9.1812   71.9786 H         1 VAL         0.0234
@<TRIPOS>BOND
     1    1    2 2  
     2    1    3 1  
     3   20   21 1  
     4   21   24 1  
     5   21   22 1  
     6   22   23 2  
     7   24   26 1  
     8   24   25 1  
     9   27   28 1  
    10   28   31 1  
    11   28   29 1  
    12   29   30 2  
    13   31   32 1  
    14   32   34 am 
    15   32   33 2  
    16   22   27 am 
    17   35   36 1  
    18   36   39 1  
    19   36   37 1  
    20   37   38 ar 
    21   37   42 ar 
    22   39   41 1  
    23   39   40 1  
    24   29   35 am 
    25    5    4 1  
    26    6    5 1  
    27    5    8 1  
    28    6    7 2  
    29    8    9 1  
    30    9   10 ar 
    31    9   11 ar 
    32   10   12 ar 
    33   11   13 ar 
    34   12   14 ar 
    35   13   14 ar 
    36   14   15 1  
    37   15   16 1  
    38   16   17 ar 
    39   16   18 ar 
    40   16   19 ar 
    41    4    1 am 
    42    6   20 am 
    43    3   43 1  
    44    3   44 1  
    45    3   45 1  
    46    4   46 1  
    47    5   47 1  
    48    8   48 1  
    49    8   49 1  
    50   10   50 1  
    51   11   51 1  
    52   12   52 1  
    53   13   53 1  
    54   20   54 1  
    55   21   55 1  
    56   24   56 1  
    57   25   57 1  
    58   25   58 1  
    59   25   59 1  
    60   26   60 1  
    61   26   61 1  
    62   26   62 1  
    63   27   63 1  
    64   28   64 1  
    65   31   65 1  
    66   31   66 1  
    67   34   67 1  
    68   34   68 1  
    69   35   69 1  
    70   36   70 1  
    71   39   71 1  
    72   40   72 1  
    73   40   73 1  
    74   40   74 1  
    75   41   75 1  
    76   41   76 1  
    77   41   77 1  
@<TRIPOS>SUBSTRUCTURE
     1 ACE         1

