1fyr_ligand
  -I-interpret- 

 80 80  0  0  0  0  0  0  0  0999 V2000
   26.3740    9.4890   67.0550 C   0  0  0  0  0
   27.4970   10.0050   67.1970 O   0  0  0  0  0
   25.6600    9.5590   65.6910 C   0  0  0  0  0
   25.7980    8.7920   68.0250 N   0  0  0  0  0
   26.4000    8.7150   69.3490 C   0  0  0  0  0
   26.6290    7.2670   69.7130 C   0  0  0  0  0
   25.7600    6.4090   69.4950 O   0  0  0  0  0
   25.4780    9.3980   70.3450 C   0  0  0  0  0
   25.1670   10.8210   69.9540 C   0  0  0  0  0
   24.0230   11.1220   69.2490 C   0  0  0  0  0
   26.0180   11.8650   70.2970 C   0  0  0  0  0
   23.7200   12.4270   68.8930 C   0  0  0  0  0
   25.7350   13.1770   69.9460 C   0  0  0  0  0
   24.5740   13.4560   69.2410 C   0  0  0  0  0
   24.2370   14.7660   68.8980 O   0  0  0  0  0
   25.1940   15.7870   68.2270 P   0  0  0  0  0
   25.4080   16.8970   69.1890 O   0  0  0  0  0
   26.4760   15.1530   67.8590 O   0  0  0  0  0
   24.5070   16.3760   67.0310 O   0  0  0  0  0
   27.8170    6.8830   70.1660 N   0  0  0  0  0
   28.2240    5.5240   70.5980 C   0  0  0  0  0
   27.2290    4.9030   71.5850 C   0  0  0  0  0
   26.9840    3.7000   71.5610 O   0  0  0  0  0
   29.6160    5.5830   71.2510 C   0  0  0  0  0
   30.0080    4.2120   71.7890 C   0  0  0  0  0
   30.6430    6.0680   70.2270 C   0  0  0  0  0
   26.6380    5.7360   72.4320 N   0  0  0  0  0
   25.7170    5.2670   73.4600 C   0  0  0  0  0
   24.2240    5.4420   73.1810 C   0  0  0  0  0
   23.4270    5.4560   74.1160 O   0  0  0  0  0
   26.0610    5.9570   74.7750 C   0  0  0  0  0
   25.7590    7.4420   74.7390 C   0  0  0  0  0
   25.8870    8.0810   73.6940 O   0  0  0  0  0
   25.3650    8.0000   75.8760 N   0  0  0  0  0
   23.8380    5.5800   71.9160 N   0  0  0  0  0
   22.4220    5.7370   71.5830 C   0  0  0  0  0
   21.9790    4.7900   70.4750 C   0  0  0  0  0
   22.5120    4.8930   69.3500 O   0  0  0  0  0
   22.0880    7.1820   71.1540 C   0  0  0  0  0
   20.6190    7.2770   70.7650 C   0  0  0  0  0
   22.3940    8.1530   72.3000 C   0  0  0  0  0
   21.1010    3.9430   70.7560 O   0  0  0  0  0
   25.5077   10.6025   65.4152 H   0  0  0  0  0
   26.2735    9.0680   64.9356 H   0  0  0  0  0
   24.6956    9.0559   65.7609 H   0  0  0  0  0
   24.9217    8.3033   67.8414 H   0  0  0  0  0
   27.3649    9.2218   69.3629 H   0  0  0  0  0
   25.9788    9.4149   71.3130 H   0  0  0  0  0
   24.5406    8.8426   70.3741 H   0  0  0  0  0
   23.3428   10.3188   68.9655 H   0  0  0  0  0
   26.9290   11.6479   70.8548 H   0  0  0  0  0
   22.8069   12.6417   68.3378 H   0  0  0  0  0
   26.4183   13.9803   70.2216 H   0  0  0  0  0
   24.5624   17.2926   69.4127 H   0  0  0  0  0
   23.6796   16.7787   67.3047 H   0  0  0  0  0
   28.5329    7.6073   70.2235 H   0  0  0  0  0
   28.2456    4.8946   69.7083 H   0  0  0  0  0
   29.5888    6.2828   72.0863 H   0  0  0  0  0
   29.2787    3.8933   72.5337 H   0  0  0  0  0
   30.0296    3.4940   70.9692 H   0  0  0  0  0
   30.9951    4.2717   72.2475 H   0  0  0  0  0
   30.6669    5.3780   69.3835 H   0  0  0  0  0
   30.3640    7.0619   69.8772 H   0  0  0  0  0
   31.6276    6.1085   70.6929 H   0  0  0  0  0
   26.8340    6.7345   72.3617 H   0  0  0  0  0
   25.8616    4.1871   73.4904 H   0  0  0  0  0
   27.1290    5.8325   74.9539 H   0  0  0  0  0
   25.4562    5.5071   75.5623 H   0  0  0  0  0
   25.1543    8.9975   75.9084 H   0  0  0  0  0
   25.2728    7.4316   76.7179 H   0  0  0  0  0
   24.5351    5.5764   71.1714 H   0  0  0  0  0
   21.8804    5.4937   72.4971 H   0  0  0  0  0
   22.7012    7.4503   70.2937 H   0  0  0  0  0
   20.4195    6.5985   69.9356 H   0  0  0  0  0
   19.9999    7.0012   71.6186 H   0  0  0  0  0
   20.3897    8.2990   70.4633 H   0  0  0  0  0
   21.7922    7.8882   73.1694 H   0  0  0  0  0
   23.4517    8.0895   72.5557 H   0  0  0  0  0
   22.1549    9.1693   71.9870 H   0  0  0  0  0
   20.8382    4.0484   71.6733 H   0  0  0  0  0
  1  2  2  0  0  0
  1  3  1  0  0  0
 20 21  1  0  0  0
 21 24  1  0  0  0
 21 22  1  0  0  0
 22 23  2  0  0  0
 24 26  1  0  0  0
 24 25  1  0  0  0
 27 28  1  0  0  0
 28 31  1  0  0  0
 28 29  1  0  0  0
 29 30  2  0  0  0
 31 32  1  0  0  0
 32 34  1  0  0  0
 32 33  2  0  0  0
 22 27  1  0  0  0
 35 36  1  0  0  0
 36 39  1  0  0  0
 36 37  1  0  0  0
 37 38  2  0  0  0
 37 42  1  0  0  0
 39 41  1  0  0  0
 39 40  1  0  0  0
 29 35  1  0  0  0
  5  4  1  0  0  0
  6  5  1  0  0  0
  5  8  1  0  0  0
  6  7  2  0  0  0
  8  9  1  0  0  0
  9 10  4  0  0  0
  9 11  4  0  0  0
 10 12  4  0  0  0
 11 13  4  0  0  0
 12 14  4  0  0  0
 13 14  4  0  0  0
 14 15  1  0  0  0
 15 16  1  0  0  0
 16 17  1  0  0  0
 16 18  2  0  0  0
 16 19  1  0  0  0
  4  1  1  0  0  0
  6 20  1  0  0  0
  3 43  1  0  0  0
  3 44  1  0  0  0
  3 45  1  0  0  0
  4 46  1  0  0  0
  5 47  1  0  0  0
  8 48  1  0  0  0
  8 49  1  0  0  0
 10 50  1  0  0  0
 11 51  1  0  0  0
 12 52  1  0  0  0
 13 53  1  0  0  0
 17 54  1  0  0  0
 19 55  1  0  0  0
 20 56  1  0  0  0
 21 57  1  0  0  0
 24 58  1  0  0  0
 25 59  1  0  0  0
 25 60  1  0  0  0
 25 61  1  0  0  0
 26 62  1  0  0  0
 26 63  1  0  0  0
 26 64  1  0  0  0
 27 65  1  0  0  0
 28 66  1  0  0  0
 31 67  1  0  0  0
 31 68  1  0  0  0
 34 69  1  0  0  0
 34 70  1  0  0  0
 35 71  1  0  0  0
 36 72  1  0  0  0
 39 73  1  0  0  0
 40 74  1  0  0  0
 40 75  1  0  0  0
 40 76  1  0  0  0
 41 77  1  0  0  0
 41 78  1  0  0  0
 41 79  1  0  0  0
 42 80  1  0  0  0
M  END
$$$$
