4c1m_ligand
  -I-interpret- 

 37 38  0  0  0  0  0  0  0  0999 V2000
   26.1450    3.4240   39.5690 N   0  0  0  0  0
   26.1370    2.8460   40.7940 C   0  0  0  0  0
   26.2290    3.5530   41.8990 N   0  0  0  0  0
   26.3260    4.8640   41.8620 C   0  0  0  0  0
   26.3260    5.5190   40.6310 C   0  0  0  0  0
   26.2240    4.7620   39.4410 C   0  0  0  0  0
   26.3870    6.9690   40.5540 C   0  0  0  0  0
   26.7310    7.5360   39.3880 N   0  0  0  0  0
   26.0630    7.6390   41.5220 O   0  0  0  0  0
   26.2090    5.3010   38.3410 O   0  0  0  0  0
   26.7610    8.9390   39.2890 O   0  0  0  0  0
   26.0090    1.4900   40.8730 N   0  0  0  0  0
   26.3500    0.7930   42.1100 C   0  0  0  0  0
   25.1950    0.8840   43.0690 C   0  0  0  0  0
   23.9940    1.4500   42.6990 C   0  0  0  0  0
   22.9380    1.5150   43.6060 C   0  0  0  0  0
   23.0790    1.0010   44.8880 C   0  0  0  0  0
   24.2940    0.4190   45.2350 C   0  0  0  0  0
   25.3420    0.3730   44.3380 C   0  0  0  0  0
   24.5580   -0.1450   46.6080 C   0  0  0  0  0
   23.4570    0.0400   47.4350 F   0  0  0  0  0
   24.8530   -1.5050   46.4820 F   0  0  0  0  0
   25.6470    0.5400   47.1680 F   0  0  0  0  0
   21.6500    2.1580   43.1470 C   0  0  0  0  0
   21.5760    2.1560   41.7520 F   0  0  0  0  0
   20.5070    1.5380   43.6400 F   0  0  0  0  0
   21.6820    3.4430   43.6200 F   0  0  0  0  0
   26.2251    3.0762   42.8007 H   0  0  0  0  0
   26.4058    5.4347   42.7872 H   0  0  0  0  0
   26.9680    6.9567   38.5826 H   0  0  0  0  0
   27.0231    9.1904   38.4003 H   0  0  0  0  0
   25.6746    0.9623   40.0667 H   0  0  0  0  0
   27.2311    1.2538   42.5565 H   0  0  0  0  0
   26.5605   -0.2540   41.8918 H   0  0  0  0  0
   23.8696    1.8487   41.6922 H   0  0  0  0  0
   22.2589    1.0522   45.6041 H   0  0  0  0  0
   26.2917   -0.0708   44.6367 H   0  0  0  0  0
  1  2  4  0  0  0
  1  6  1  0  0  0
  2  3  1  0  0  0
  2 12  1  0  0  0
  3  4  1  0  0  0
  4  5  2  0  0  0
  5  6  1  0  0  0
  5  7  1  0  0  0
  6 10  2  0  0  0
  7  8  1  0  0  0
  7  9  2  0  0  0
  8 11  1  0  0  0
 12 13  1  0  0  0
 13 14  1  0  0  0
 14 15  4  0  0  0
 14 19  4  0  0  0
 15 16  4  0  0  0
 16 17  4  0  0  0
 16 24  1  0  0  0
 17 18  4  0  0  0
 18 19  4  0  0  0
 18 20  1  0  0  0
 20 21  1  0  0  0
 20 22  1  0  0  0
 20 23  1  0  0  0
 24 25  1  0  0  0
 24 26  1  0  0  0
 24 27  1  0  0  0
  3 28  1  0  0  0
  4 29  1  0  0  0
  8 30  1  0  0  0
 11 31  1  0  0  0
 12 32  1  0  0  0
 13 33  1  0  0  0
 13 34  1  0  0  0
 15 35  1  0  0  0
 17 36  1  0  0  0
 19 37  1  0  0  0
M  END
$$$$
