1h1b_ligand
  -I-interpret- 

 60 62  0  0  0  0  0  0  0  0999 V2000
   17.6300   13.2150   24.7210 O   0  0  0  0  0
   18.2600   12.7710   23.7530 C   0  0  0  0  0
   17.8180   11.7320   22.9620 N   0  0  0  0  0
   18.6990   10.8960   22.1770 C   0  0  0  0  0
   17.8690    9.6140   21.8950 C   0  0  0  0  0
   16.7790    9.7590   22.9390 C   0  0  0  0  0
   17.4060    9.4000   24.1670 N   0  0  0  0  0
   16.3980    8.9010   25.4570 S   0  0  0  0  0
   14.7570    8.4460   24.9870 C   0  0  0  0  0
   17.2610    7.8450   26.0790 O   0  0  0  0  0
   16.3070   10.1150   26.3840 O   0  0  0  0  0
   16.4560   11.2700   22.9470 C   0  0  0  0  0
   15.6610   11.6400   21.6890 C   0  0  0  0  0
   15.2980   13.1440   21.5020 C   0  0  0  0  0
   14.4650   13.5680   22.7170 C   0  0  0  0  0
   14.5500   13.3210   20.1680 C   0  0  0  0  0
   14.3650   10.7910   21.6650 C   0  0  0  0  0
   13.3700   10.8480   22.4290 O   0  0  0  0  0
   19.5570   13.1940   23.5860 C   0  0  0  0  0
   20.2880   13.2790   22.3560 N   0  0  0  0  0
   21.5580   13.6570   22.8740 C   0  0  0  0  0
   21.6200   13.7970   24.2460 O   0  0  0  0  0
   20.3710   13.4650   24.6900 C   0  0  0  0  0
   22.7260   13.9160   21.9860 C   0  0  0  0  0
   23.4980   12.7390   21.6410 N   0  3  0  0  0
   22.9720   11.9210   20.5440 C   0  0  0  0  0
   23.7410   12.3760   19.3100 C   0  0  0  0  0
   25.1290   12.4090   19.9180 C   0  0  0  0  0
   24.8700   13.1240   21.2540 C   0  0  0  0  0
   19.6277   10.6741   22.7027 H   0  0  0  0  0
   19.0169   11.3875   21.2575 H   0  0  0  0  0
   18.4386    8.6876   21.9694 H   0  0  0  0  0
   17.5005    9.5364   20.8721 H   0  0  0  0  0
   15.8817    9.1636   22.7704 H   0  0  0  0  0
   18.4197    9.4390   24.2735 H   0  0  0  0  0
   14.8006    7.6412   24.2531 H   0  0  0  0  0
   14.2090    8.1081   25.8666 H   0  0  0  0  0
   14.2525    9.3089   24.5523 H   0  0  0  0  0
   15.8328   11.6760   23.7438 H   0  0  0  0  0
   16.3309   11.4261   20.8562 H   0  0  0  0  0
   16.1815   13.7803   21.4508 H   0  0  0  0  0
   13.5619   12.9598   22.7669 H   0  0  0  0  0
   15.0509   13.4259   23.6251 H   0  0  0  0  0
   14.1920   14.6188   22.6199 H   0  0  0  0  0
   15.1892   12.9933   19.3482 H   0  0  0  0  0
   13.6390   12.7227   20.1816 H   0  0  0  0  0
   14.2941   14.3719   20.0331 H   0  0  0  0  0
   14.3093   10.0408   20.8762 H   0  0  0  0  0
   20.0603   13.4190   25.7338 H   0  0  0  0  0
   23.3939   14.5856   22.5279 H   0  0  0  0  0
   22.3320   14.3211   21.0539 H   0  0  0  0  0
   23.4566   12.1737   22.4890 H   0  0  0  0  0
   21.8969   12.0523   20.4215 H   0  0  0  0  0
   23.1058   10.8560   20.7338 H   0  0  0  0  0
   23.4025   13.3134   18.8686 H   0  0  0  0  0
   23.6315   11.7404   18.4313 H   0  0  0  0  0
   25.8648   12.9135   19.2917 H   0  0  0  0  0
   25.5750   11.4213   20.0342 H   0  0  0  0  0
   25.5975   12.8342   22.0123 H   0  0  0  0  0
   24.9717   14.2049   21.1574 H   0  0  0  0  0
  1  2  2  0  0  0
  2  3  1  0  0  0
  2 19  1  0  0  0
  3  4  1  0  0  0
  3 12  1  0  0  0
  4  5  1  0  0  0
  5  6  1  0  0  0
  6  7  1  0  0  0
  6 12  1  0  0  0
  7  8  1  0  0  0
  8  9  1  0  0  0
  8 10  2  0  0  0
  8 11  2  0  0  0
 12 13  1  0  0  0
 13 14  1  0  0  0
 13 17  1  0  0  0
 14 15  1  0  0  0
 14 16  1  0  0  0
 17 18  2  0  0  0
 19 20  4  0  0  0
 19 23  4  0  0  0
 20 21  4  0  0  0
 21 22  4  0  0  0
 21 24  1  0  0  0
 22 23  4  0  0  0
 24 25  1  0  0  0
 25 26  1  0  0  0
 25 29  1  0  0  0
 26 27  1  0  0  0
 27 28  1  0  0  0
 28 29  1  0  0  0
  4 30  1  0  0  0
  4 31  1  0  0  0
  5 32  1  0  0  0
  5 33  1  0  0  0
  6 34  1  0  0  0
  7 35  1  0  0  0
  9 36  1  0  0  0
  9 37  1  0  0  0
  9 38  1  0  0  0
 12 39  1  0  0  0
 13 40  1  0  0  0
 14 41  1  0  0  0
 15 42  1  0  0  0
 15 43  1  0  0  0
 15 44  1  0  0  0
 16 45  1  0  0  0
 16 46  1  0  0  0
 16 47  1  0  0  0
 17 48  1  0  0  0
 23 49  1  0  0  0
 24 50  1  0  0  0
 24 51  1  0  0  0
 25 52  1  0  0  0
 26 53  1  0  0  0
 26 54  1  0  0  0
 27 55  1  0  0  0
 27 56  1  0  0  0
 28 57  1  0  0  0
 28 58  1  0  0  0
 29 59  1  0  0  0
 29 60  1  0  0  0
M  END
$$$$
