5l2i_ligand
  -I-interpret- 

 63 67  0  0  0  0  0  0  0  0999 V2000
   16.4730   25.5570    3.3260 O   0  0  0  0  0
   15.5050   25.2870    4.0400 C   0  0  0  0  0
   14.3430   24.5330    3.4710 C   0  0  0  0  0
   15.4740   25.7210    5.4450 C   0  0  0  0  0
   16.3550   25.2010    6.3500 C   0  0  0  0  0
   17.2580   24.0690    5.9560 C   0  0  0  0  0
   16.3890   25.6910    7.7230 C   0  0  0  0  0
   17.3510   25.4040    8.6960 C   0  0  0  0  0
   17.4120   25.9800    9.8990 N   0  0  0  0  0
   16.4240   26.8420   10.1830 C   0  0  0  0  0
   15.4320   27.2180    9.3550 N   0  0  0  0  0
   15.4460   26.6610    8.1290 C   0  0  0  0  0
   14.5400   27.1640    7.2000 N   0  0  0  0  0
   13.6340   28.2790    7.5850 C   0  0  0  0  0
   14.0360   29.6370    7.0060 C   0  0  0  0  0
   12.7180   30.3190    6.7470 C   0  0  0  0  0
   11.7940   29.2310    6.3530 C   0  0  0  0  0
   12.1620   28.0550    7.2290 C   0  0  0  0  0
   14.5170   26.7310    5.8360 C   0  0  0  0  0
   13.7290   27.2180    5.0330 O   0  0  0  0  0
   16.4690   27.3160   11.4640 N   0  0  0  0  0
   15.6010   28.1320   12.1550 C   0  0  0  0  0
   14.9340   27.4670   13.1110 N   0  0  0  0  0
   14.0410   28.1470   13.8420 C   0  0  0  0  0
   13.7620   29.4980   13.6590 C   0  0  0  0  0
   14.4780   30.1740   12.6760 C   0  0  0  0  0
   15.4090   29.4980   11.9130 C   0  0  0  0  0
   12.7440   30.1180   14.3880 N   0  0  0  0  0
   12.9120   31.5260   14.7600 C   0  0  0  0  0
   11.9250   31.9060   15.8380 C   0  0  0  0  0
   10.5390   31.6160   15.3850 N   0  3  0  0  0
   10.3810   30.1800   15.0280 C   0  0  0  0  0
   11.3780   29.7950   13.9600 C   0  0  0  0  0
   13.9128   25.1000    2.6455 H   0  0  0  0  0
   14.6833   23.5629    3.1088 H   0  0  0  0  0
   13.5902   24.3893    4.2460 H   0  0  0  0  0
   16.6547   23.2129    5.6540 H   0  0  0  0  0
   17.8890   24.3819    5.1242 H   0  0  0  0  0
   17.8838   23.7929    6.8046 H   0  0  0  0  0
   18.1060   24.6557    8.4550 H   0  0  0  0  0
   13.7457   28.2895    8.6692 H   0  0  0  0  0
   14.6395   29.5420    6.1033 H   0  0  0  0  0
   14.6725   30.2060    7.6836 H   0  0  0  0  0
   12.8022   31.0786    5.9698 H   0  0  0  0  0
   12.3603   30.8538    7.6268 H   0  0  0  0  0
   11.8902   28.9876    5.2949 H   0  0  0  0  0
   10.7523   29.5214    6.4895 H   0  0  0  0  0
   11.5334   27.9983    8.1177 H   0  0  0  0  0
   12.0078   27.1044    6.7184 H   0  0  0  0  0
   17.2834   27.0143   11.9989 H   0  0  0  0  0
   13.5025   27.6120   14.6243 H   0  0  0  0  0
   14.3039   31.2369   12.5084 H   0  0  0  0  0
   15.9803   30.0144   11.1416 H   0  0  0  0  0
   12.7372   32.1487   13.8826 H   0  0  0  0  0
   13.9241   31.6759   15.1359 H   0  0  0  0  0
   12.0174   32.9714   16.0489 H   0  0  0  0  0
   12.1364   31.3275   16.7373 H   0  0  0  0  0
   10.3406   32.1812   14.5594 H   0  0  0  0  0
    9.8947   31.8361   16.1445 H   0  0  0  0  0
    9.3720   30.0153   14.6501 H   0  0  0  0  0
   10.5551   29.5707   15.9149 H   0  0  0  0  0
   11.3081   28.7219   13.7820 H   0  0  0  0  0
   11.1525   30.3504   13.0496 H   0  0  0  0  0
  1  2  2  0  0  0
  2  3  1  0  0  0
  2  4  1  0  0  0
  4  5  2  0  0  0
  4 19  1  0  0  0
  5  6  1  0  0  0
  5  7  1  0  0  0
  7  8  4  0  0  0
  7 12  4  0  0  0
  8  9  4  0  0  0
  9 10  4  0  0  0
 10 11  4  0  0  0
 10 21  1  0  0  0
 11 12  4  0  0  0
 12 13  1  0  0  0
 13 14  1  0  0  0
 13 19  1  0  0  0
 14 15  1  0  0  0
 14 18  1  0  0  0
 15 16  1  0  0  0
 16 17  1  0  0  0
 17 18  1  0  0  0
 19 20  2  0  0  0
 21 22  1  0  0  0
 22 23  4  0  0  0
 22 27  4  0  0  0
 23 24  4  0  0  0
 24 25  4  0  0  0
 25 26  4  0  0  0
 25 28  1  0  0  0
 26 27  4  0  0  0
 28 29  1  0  0  0
 28 33  1  0  0  0
 29 30  1  0  0  0
 30 31  1  0  0  0
 31 32  1  0  0  0
 32 33  1  0  0  0
  3 34  1  0  0  0
  3 35  1  0  0  0
  3 36  1  0  0  0
  6 37  1  0  0  0
  6 38  1  0  0  0
  6 39  1  0  0  0
  8 40  1  0  0  0
 14 41  1  0  0  0
 15 42  1  0  0  0
 15 43  1  0  0  0
 16 44  1  0  0  0
 16 45  1  0  0  0
 17 46  1  0  0  0
 17 47  1  0  0  0
 18 48  1  0  0  0
 18 49  1  0  0  0
 21 50  1  0  0  0
 24 51  1  0  0  0
 26 52  1  0  0  0
 27 53  1  0  0  0
 29 54  1  0  0  0
 29 55  1  0  0  0
 30 56  1  0  0  0
 30 57  1  0  0  0
 31 58  1  0  0  0
 31 59  1  0  0  0
 32 60  1  0  0  0
 32 61  1  0  0  0
 33 62  1  0  0  0
 33 63  1  0  0  0
M  END
$$$$
