1xws_ligand
  -I-interpret- 

 57 61  0  0  0  0  0  0  0  0999 V2000
  -14.9030  -36.4870    5.8420 C   0  0  0  0  0
  -15.8660  -36.4870    4.7470 N   0  3  0  0  0
  -17.2180  -36.9790    4.9630 C   0  0  0  0  0
  -15.3890  -35.9230    3.4860 C   0  0  0  0  0
  -16.4520  -36.0540    2.4070 C   0  0  0  0  0
  -15.6560  -36.0150    1.1240 C   0  0  0  0  0
  -16.5110  -36.1470   -0.0400 N   0  0  0  0  0
  -17.4560  -37.1270   -0.1720 C   0  0  0  0  0
  -16.4620  -35.3690   -1.1300 C   0  0  0  0  0
  -15.6680  -34.2780   -1.4930 C   0  0  0  0  0
  -15.8460  -33.6620   -2.7160 C   0  0  0  0  0
  -16.8130  -34.1320   -3.6210 C   0  0  0  0  0
  -17.6160  -35.2240   -3.2780 C   0  0  0  0  0
  -17.4030  -35.8500   -2.0450 C   0  0  0  0  0
  -18.0360  -36.9000   -1.3980 C   0  0  0  0  0
  -19.0800  -37.8430   -1.9360 C   0  0  0  0  0
  -19.1420  -38.3480   -3.3350 C   0  0  0  0  0
  -18.4160  -37.8970   -4.2920 O   0  0  0  0  0
  -20.1060  -39.2700   -3.5490 N   0  0  0  0  0
  -20.6570  -39.4950   -2.3480 C   0  0  0  0  0
  -21.6020  -40.3400   -2.2080 O   0  0  0  0  0
  -20.0890  -38.6740   -1.2550 C   0  0  0  0  0
  -20.5040  -38.7500    0.1830 C   0  0  0  0  0
  -20.4300  -37.7310    1.1540 C   0  0  0  0  0
  -20.0080  -36.3960    1.1200 C   0  0  0  0  0
  -20.0660  -35.6470    2.2900 C   0  0  0  0  0
  -20.5500  -36.2460    3.4540 C   0  0  0  0  0
  -20.9830  -37.5830    3.4910 C   0  0  0  0  0
  -20.9090  -38.3470    2.3110 C   0  0  0  0  0
  -21.2560  -39.6430    2.0190 N   0  0  0  0  0
  -21.0250  -39.9310    0.7090 C   0  0  0  0  0
  -14.0289  -37.0717    5.5554 H   0  0  0  0  0
  -14.6012  -35.4623    6.0587 H   0  0  0  0  0
  -15.3616  -36.9270    6.7275 H   0  0  0  0  0
  -16.5710  -37.0725    4.2991 H   0  0  0  0  0
  -17.9286  -36.1688    4.7996 H   0  0  0  0  0
  -17.4237  -37.7906    4.2651 H   0  0  0  0  0
  -17.3111  -37.3449    5.9855 H   0  0  0  0  0
  -14.4969  -36.4645    3.1713 H   0  0  0  0  0
  -15.1632  -34.8669    3.6338 H   0  0  0  0  0
  -17.2008  -35.2636    2.4591 H   0  0  0  0  0
  -17.0398  -36.9664    2.5072 H   0  0  0  0  0
  -14.9524  -36.8474    1.1302 H   0  0  0  0  0
  -15.1426  -35.0552    1.0667 H   0  0  0  0  0
  -17.6970  -37.9164    0.5399 H   0  0  0  0  0
  -14.9042  -33.9113   -0.8073 H   0  0  0  0  0
  -15.2304  -32.8027   -2.9821 H   0  0  0  0  0
  -16.9368  -33.6460   -4.5888 H   0  0  0  0  0
  -18.3912  -35.5799   -3.9566 H   0  0  0  0  0
  -18.9613  -36.8495   -1.5036 H   0  0  0  0  0
  -20.3606  -39.7032   -4.4366 H   0  0  0  0  0
  -20.1953  -38.4897   -0.1860 H   0  0  0  0  0
  -19.6412  -35.9527    0.1942 H   0  0  0  0  0
  -19.7383  -34.6074    2.2980 H   0  0  0  0  0
  -20.5939  -35.6550    4.3688 H   0  0  0  0  0
  -21.3676  -38.0185    4.4132 H   0  0  0  0  0
  -21.2063  -40.8717    0.1891 H   0  0  0  0  0
  1  2  1  0  0  0
  2  3  1  0  0  0
  2  4  1  0  0  0
  4  5  1  0  0  0
  5  6  1  0  0  0
  6  7  1  0  0  0
  7  8  4  0  0  0
  7  9  4  0  0  0
  8 15  4  0  0  0
  9 10  4  0  0  0
  9 14  4  0  0  0
 10 11  4  0  0  0
 11 12  4  0  0  0
 12 13  4  0  0  0
 13 14  4  0  0  0
 14 15  4  0  0  0
 15 16  1  0  0  0
 16 17  1  0  0  0
 16 22  1  0  0  0
 17 18  2  0  0  0
 17 19  1  0  0  0
 19 20  1  0  0  0
 20 21  2  0  0  0
 20 22  1  0  0  0
 22 23  1  0  0  0
 23 24  4  0  0  0
 23 31  4  0  0  0
 24 25  4  0  0  0
 24 29  4  0  0  0
 25 26  4  0  0  0
 26 27  4  0  0  0
 27 28  4  0  0  0
 28 29  4  0  0  0
 29 30  4  0  0  0
 30 31  4  0  0  0
  1 32  1  0  0  0
  1 33  1  0  0  0
  1 34  1  0  0  0
  2 35  1  0  0  0
  3 36  1  0  0  0
  3 37  1  0  0  0
  3 38  1  0  0  0
  4 39  1  0  0  0
  4 40  1  0  0  0
  5 41  1  0  0  0
  5 42  1  0  0  0
  6 43  1  0  0  0
  6 44  1  0  0  0
  8 45  1  0  0  0
 10 46  1  0  0  0
 11 47  1  0  0  0
 12 48  1  0  0  0
 13 49  1  0  0  0
 16 50  1  0  0  0
 19 51  1  0  0  0
 22 52  1  0  0  0
 25 53  1  0  0  0
 26 54  1  0  0  0
 27 55  1  0  0  0
 28 56  1  0  0  0
 31 57  1  0  0  0
M  END
$$$$
