3fjz_ligand
  -I-interpret- 

 19 18  0  0  0  0  0  0  0  0999 V2000
   59.7700    7.8610   28.2300 C   0  0  0  0  0
   59.8430    7.9900   30.7410 C   0  0  0  0  0
   60.4190    8.8600   31.8480 C   0  0  0  0  0
   60.2120   10.2180   27.1920 O   0  0  0  0  0
   59.0840    8.4030   25.8560 O   0  0  0  0  0
   61.5470    8.3340   26.3530 O   0  0  0  0  0
   61.0100    9.9520   31.5290 O   0  0  0  0  0
   60.1690    8.7760   26.8160 P   0  0  0  0  0
   60.2760    8.4520   33.0020 O   0  0  0  0  0
   60.1130    8.5870   29.4410 N   0  3  0  0  0
   60.3349    6.9290   28.2117 H   0  0  0  0  0
   58.6965    7.6722   28.2303 H   0  0  0  0  0
   58.7650    7.9054   30.8779 H   0  0  0  0  0
   60.3062    7.0042   30.7842 H   0  0  0  0  0
   59.1313    7.4621   25.6712 H   0  0  0  0  0
   61.5194    7.4054   26.1109 H   0  0  0  0  0
   60.9962   10.0550   30.5746 H   0  0  0  0  0
   59.5278    9.4220   29.4148 H   0  0  0  0  0
   61.1282    8.6799   29.4064 H   0  0  0  0  0
  1  8  1  0  0  0
 10  1  1  0  0  0
  2  3  1  0  0  0
  2 10  1  0  0  0
  3  7  1  0  0  0
  3  9  2  0  0  0
  8  4  2  0  0  0
  8  5  1  0  0  0
  8  6  1  0  0  0
  1 11  1  0  0  0
  1 12  1  0  0  0
  2 13  1  0  0  0
  2 14  1  0  0  0
  5 15  1  0  0  0
  6 16  1  0  0  0
  7 17  1  0  0  0
 10 18  1  0  0  0
 10 19  1  0  0  0
M  END
$$$$
