1ihy_ligand
  -I-interpret- 

 59 62  0  0  0  0  0  0  0  0999 V2000
   52.1960   15.3350   46.6300 N   0  0  0  0  0
   51.3360   15.9790   45.7620 C   0  0  0  0  0
   50.4660   15.4320   44.9390 N   0  0  0  0  0
   50.4690   14.0630   45.0130 C   0  0  0  0  0
   51.2630   13.2610   45.8330 C   0  0  0  0  0
   52.1780   13.9520   46.6890 C   0  0  0  0  0
   53.0040   13.3320   47.5240 N   0  0  0  0  0
   50.9810   11.9180   45.6340 N   0  0  0  0  0
   50.0230   11.9210   44.6930 C   0  0  0  0  0
   49.6800   13.1850   44.2870 N   0  0  0  0  0
   48.6960   13.6340   43.2760 C   0  0  0  0  0
   48.7470   12.8060   42.0060 C   0  0  0  0  0
   49.7280   13.3210   41.0920 O   0  0  0  0  0
   47.3280   12.8520   41.4500 C   0  0  0  0  0
   47.0710   13.7920   40.3880 O   0  0  0  0  0
   47.3810   13.5480   43.7470 O   0  0  0  0  0
   46.4780   13.1110   42.6900 C   0  0  0  0  0
   45.6690   11.9220   43.1950 C   0  0  0  0  0
   44.2450   12.1730   42.9670 O   0  0  0  0  0
   43.2760   11.0420   42.3000 P   0  0  0  0  0
   43.8770    9.6920   42.4680 O   0  0  0  0  0
   43.0720   11.3190   40.8590 O   0  0  0  0  0
   41.9440   11.2310   43.1240 O   0  0  0  0  0
   41.3540   12.4480   44.1200 P   0  0  0  0  0
   41.8420   12.2620   45.5160 O   0  0  0  0  0
   41.7460   13.7870   43.5970 O   0  0  0  0  0
   39.8310   12.2230   44.0040 O   0  0  0  0  0
   39.3580   10.9990   44.4750 C   0  0  0  0  0
   37.6230   11.0880   42.8680 O   0  0  0  0  0
   37.3610    9.6090   41.0550 O   0  0  0  0  0
   36.9010    9.9800   42.4090 C   0  0  0  0  0
   36.1880    7.8720   43.5050 O   0  0  0  0  0
   37.1920    8.8990   43.4350 C   0  0  0  0  0
   36.0450    9.7770   45.4870 O   0  0  0  0  0
   37.3040    9.6620   44.7670 C   0  0  0  0  0
   37.9010   10.9530   44.2880 C   0  0  0  0  0
   51.3831   17.0680   45.7579 H   0  0  0  0  0
   53.6391   13.8743   48.1097 H   0  0  0  0  0
   53.0033   12.3135   47.5796 H   0  0  0  0  0
   49.5666   11.0150   44.2943 H   0  0  0  0  0
   48.9702   14.6684   43.0690 H   0  0  0  0  0
   49.0568   11.7766   42.1864 H   0  0  0  0  0
   49.7398   12.7803   40.2989 H   0  0  0  0  0
   47.0985   11.9209   40.9318 H   0  0  0  0  0
   46.1505   13.7295   40.1226 H   0  0  0  0  0
   45.7354   13.8581   42.4098 H   0  0  0  0  0
   45.8490   11.7850   44.2613 H   0  0  0  0  0
   45.9709   11.0218   42.6596 H   0  0  0  0  0
   44.0080    9.5153   43.4025 H   0  0  0  0  0
   41.5791   11.3947   45.8328 H   0  0  0  0  0
   39.5990   10.8912   45.5325 H   0  0  0  0  0
   39.8278   10.1840   43.9244 H   0  0  0  0  0
   36.8624    8.8491   40.7459 H   0  0  0  0  0
   35.8299   10.1603   42.3175 H   0  0  0  0  0
   36.4375    7.2270   44.1708 H   0  0  0  0  0
   38.0973    8.3524   43.1708 H   0  0  0  0  0
   36.1877   10.2614   46.3035 H   0  0  0  0  0
   37.9038    9.1697   45.5325 H   0  0  0  0  0
   37.4592   11.7612   44.8708 H   0  0  0  0  0
  2  1  4  0  0  0
  6  1  4  0  0  0
  3  2  4  0  0  0
  4  3  4  0  0  0
  4  5  4  0  0  0
 10  4  4  0  0  0
  5  6  4  0  0  0
  8  5  4  0  0  0
  6  7  1  0  0  0
  9  8  4  0  0  0
 10  9  4  0  0  0
 11 10  1  0  0  0
 11 12  1  0  0  0
 16 11  1  0  0  0
 12 13  1  0  0  0
 14 12  1  0  0  0
 14 15  1  0  0  0
 17 14  1  0  0  0
 17 16  1  0  0  0
 18 17  1  0  0  0
 19 18  1  0  0  0
 20 19  1  0  0  0
 20 21  1  0  0  0
 20 22  2  0  0  0
 23 20  1  0  0  0
 24 23  1  0  0  0
 24 25  1  0  0  0
 24 26  2  0  0  0
 27 24  1  0  0  0
 28 27  1  0  0  0
 36 28  1  0  0  0
 29 31  1  0  0  0
 29 36  1  0  0  0
 31 30  1  0  0  0
 31 33  1  0  0  0
 33 32  1  0  0  0
 33 35  1  0  0  0
 35 34  1  0  0  0
 35 36  1  0  0  0
  2 37  1  0  0  0
  7 38  1  0  0  0
  7 39  1  0  0  0
  9 40  1  0  0  0
 11 41  1  0  0  0
 12 42  1  0  0  0
 13 43  1  0  0  0
 14 44  1  0  0  0
 15 45  1  0  0  0
 17 46  1  0  0  0
 18 47  1  0  0  0
 18 48  1  0  0  0
 21 49  1  0  0  0
 25 50  1  0  0  0
 28 51  1  0  0  0
 28 52  1  0  0  0
 30 53  1  0  0  0
 31 54  1  0  0  0
 32 55  1  0  0  0
 33 56  1  0  0  0
 34 57  1  0  0  0
 35 58  1  0  0  0
 36 59  1  0  0  0
M  END
$$$$
