### 
### Created by X-TOOL on Mon Sep 10 21:12:48 2018
### 

@<TRIPOS>MOLECULE
1ihy_ligand
   57    60     1     0     0
SMALL
GAST_HUCK


@<TRIPOS>ATOM
      1 N1         52.1960   15.3350   46.6300 N.ar      1 APR        -0.2698
      2 C2         51.3360   15.9790   45.7620 C.ar      1 APR         0.0533
      3 N3         50.4660   15.4320   44.9390 N.ar      1 APR        -0.2714
      4 C4         50.4690   14.0630   45.0130 C.ar      1 APR         0.1613
      5 C5         51.2630   13.2610   45.8330 C.ar      1 APR         0.1045
      6 C6         52.1780   13.9520   46.6890 C.ar      1 APR         0.1298
      7 N6         53.0040   13.3320   47.5240 N.pl3     1 APR        -0.3152
      8 N7         50.9810   11.9180   45.6340 N.2       1 APR        -0.2958
      9 C8         50.0230   11.9210   44.6930 C.2       1 APR         0.1123
     10 N9         49.6800   13.1850   44.2870 N.pl3     1 APR        -0.1919
     11 C1         48.6960   13.6340   43.2760 C.3       1 APR         0.2010
     12 C2         48.7470   12.8060   42.0060 C.3       1 APR         0.1385
     13 O2         49.7280   13.3210   41.0920 O.3       1 APR        -0.3836
     14 C3         47.3280   12.8520   41.4500 C.3       1 APR         0.1149
     15 O3         47.0710   13.7920   40.3880 O.3       1 APR        -0.3864
     16 O4         47.3810   13.5480   43.7470 O.3       1 APR        -0.3364
     17 C4         46.4780   13.1110   42.6900 C.3       1 APR         0.1189
     18 C5         45.6690   11.9220   43.1950 C.3       1 APR         0.1128
     19 O5         44.2450   12.1730   42.9670 O.3       1 APR        -0.2476
     20 PA         43.2760   11.0420   42.3000 P.3       1 APR         0.2972
     21 O1A        43.8770    9.6920   42.4680 O.co2     1 APR        -0.6127
     22 O2A        43.0720   11.3190   40.8590 O.co2     1 APR        -0.6127
     23 O3A        41.9440   11.2310   43.1240 O.3       1 APR        -0.1319
     24 PB         41.3540   12.4480   44.1200 P.3       1 APR         0.2972
     25 O1B        41.8420   12.2620   45.5160 O.co2     1 APR        -0.6127
     26 O2B        41.7460   13.7870   43.5970 O.co2     1 APR        -0.6127
     27 RO5        39.8310   12.2230   44.0040 O.3       1 APR        -0.2476
     28 RC5        39.3580   10.9990   44.4750 C.3       1 APR         0.1128
     29 RO4        37.6230   11.0880   42.8680 O.3       1 APR        -0.3403
     30 RO1        37.3610    9.6090   41.0550 O.3       1 APR        -0.3649
     31 RC1        36.9010    9.9800   42.4090 C.3       1 APR         0.1854
     32 RO2        36.1880    7.8720   43.5050 O.3       1 APR        -0.3841
     33 RC2        37.1920    8.8990   43.4350 C.3       1 APR         0.1339
     34 RO3        36.0450    9.7770   45.4870 O.3       1 APR        -0.3864
     35 RC3        37.3040    9.6620   44.7670 C.3       1 APR         0.1144
     36 RC4        37.9010   10.9530   44.2880 C.3       1 APR         0.1184
     37 H1         51.3829   17.0620   45.7579 H         1 APR         0.0996
     38 H2         53.0033   12.3035   47.5802 H         1 APR         0.1820
     39 H3         53.6453   13.8796   48.1154 H         1 APR         0.1820
     40 H4         49.5670   11.0158   44.2947 H         1 APR         0.1349
     41 H5         48.9213   14.6819   43.0289 H         1 APR         0.0996
     42 H6         49.0127   11.7662   42.2474 H         1 APR         0.0676
     43 H7         49.5069   14.2161   40.8631 H         1 APR         0.2101
     44 H8         47.0840   11.8573   41.0487 H         1 APR         0.0648
     45 H9         47.2542   14.6723   40.6946 H         1 APR         0.2100
     46 H10        45.7714   13.9207   42.4551 H         1 APR         0.0651
     47 H11        45.8501   11.7850   44.2713 H         1 APR         0.0648
     48 H12        45.9732   11.0141   42.6535 H         1 APR         0.0648
     49 H13        39.5973   10.8962   45.5437 H         1 APR         0.0648
     50 H14        39.8293   10.1791   43.9131 H         1 APR         0.0648
     51 H15        38.2854    9.3921   41.0842 H         1 APR         0.2126
     52 H16        35.8234   10.1988   42.3786 H         1 APR         0.0935
     53 H17        35.3534    8.2619   43.7373 H         1 APR         0.2101
     54 H18        38.1525    8.4191   43.1962 H         1 APR         0.0671
     55 H19        35.7149    8.9088   45.6861 H         1 APR         0.2100
     56 H20        38.0131    9.1519   45.4356 H         1 APR         0.0648
     57 H21        37.4416   11.7864   44.8396 H         1 APR         0.0651
@<TRIPOS>BOND
     1    2    1 ar 
     2    6    1 ar 
     3    3    2 ar 
     4    4    3 ar 
     5    4    5 ar 
     6   10    4 1  
     7    5    6 ar 
     8    8    5 1  
     9    6    7 1  
    10    9    8 2  
    11   10    9 1  
    12   11   10 1  
    13   11   12 1  
    14   16   11 1  
    15   12   13 1  
    16   14   12 1  
    17   14   15 1  
    18   17   14 1  
    19   17   16 1  
    20   18   17 1  
    21   19   18 1  
    22   20   19 1  
    23   20   21 ar 
    24   20   22 ar 
    25   23   20 1  
    26   24   23 1  
    27   24   25 ar 
    28   24   26 ar 
    29   27   24 1  
    30   28   27 1  
    31   36   28 1  
    32   29   31 1  
    33   29   36 1  
    34   31   30 1  
    35   31   33 1  
    36   33   32 1  
    37   33   35 1  
    38   35   34 1  
    39   35   36 1  
    40    2   37 1  
    41    7   38 1  
    42    7   39 1  
    43    9   40 1  
    44   11   41 1  
    45   12   42 1  
    46   13   43 1  
    47   14   44 1  
    48   15   45 1  
    49   17   46 1  
    50   18   47 1  
    51   18   48 1  
    52   28   49 1  
    53   28   50 1  
    54   30   51 1  
    55   31   52 1  
    56   32   53 1  
    57   33   54 1  
    58   34   55 1  
    59   35   56 1  
    60   36   57 1  
@<TRIPOS>SUBSTRUCTURE
     1 APR         1

