### 
### Created by X-TOOL on Mon Sep 10 21:12:56 2018
### 

@<TRIPOS>MOLECULE
2vf6_ligand
   28    29     1     0     0
SMALL
GAST_HUCK


@<TRIPOS>ATOM
      1 O          14.1400  -34.4490   26.7590 O.3       1 M0N        -0.3581
      2 C9         15.3880  -34.3620   26.0790 C.3       1 M0N         0.2141
      3 C8         15.3680  -33.1610   25.1570 C.3       1 M0N         0.0618
      4 C2         15.0040  -31.8640   25.8060 C.2       1 M0N         0.0763
      5 C1         14.2950  -31.6150   26.9740 C.2       1 M0N        -0.0352
      6 N1         14.2430  -30.2240   27.1530 N.2       1 M0N        -0.3568
      7 C7         14.9230  -29.6320   26.0900 C.2       1 M0N         0.1284
      8 C6         15.1700  -28.2900   25.7820 C.2       1 M0N        -0.0215
      9 C5         15.8920  -27.9960   24.6150 C.2       1 M0N        -0.0637
     10 C4         16.3640  -29.0380   23.8050 C.2       1 M0N        -0.0287
     11 C3         16.0970  -30.3780   24.1250 C.2       1 M0N         0.0795
     12 N2         15.3670  -30.6340   25.2590 N.pl3     1 M0N        -0.2030
     13 P1         16.7490  -34.2120   27.2860 P.3       1 M0N         0.1119
     14 O2         18.0550  -34.0480   26.5420 O.co2     1 M0N        -0.5593
     15 O3         16.5450  -33.0180   28.1820 O.co2     1 M0N        -0.5593
     16 O1         16.7950  -35.4650   28.1430 O.co2     1 M0N        -0.5593
     17 P2         15.6400  -35.8640   25.0890 P.3       1 M0N         0.1119
     18 O5         17.0070  -35.8070   24.4160 O.co2     1 M0N        -0.5593
     19 O6         14.6660  -35.8620   23.9620 O.co2     1 M0N        -0.5593
     20 O4         15.5920  -37.0550   26.0220 O.co2     1 M0N        -0.5593
     21 H1         14.1416  -35.2120   27.3250 H         1 M0N         0.2134
     22 H2         14.6381  -33.3579   24.3580 H         1 M0N         0.0477
     23 H3         16.3710  -33.0521   24.7187 H         1 M0N         0.0477
     24 H4         13.8580  -32.3643   27.6325 H         1 M0N         0.0387
     25 H5         14.8109  -27.4932   26.4317 H         1 M0N         0.0573
     26 H6         16.0851  -26.9603   24.3393 H         1 M0N         0.0616
     27 H7         16.9461  -28.8044   22.9148 H         1 M0N         0.0540
     28 H8         16.4574  -31.1889   23.4938 H         1 M0N         0.1187
@<TRIPOS>BOND
     1    1    2 1  
     2    2    3 1  
     3    2   13 1  
     4    2   17 1  
     5    3    4 1  
     6    4    5 2  
     7    4   12 1  
     8    5    6 1  
     9    6    7 2  
    10    7    8 1  
    11    7   12 1  
    12    8    9 2  
    13    9   10 1  
    14   10   11 2  
    15   11   12 1  
    16   13   14 ar 
    17   13   15 ar 
    18   13   16 ar 
    19   17   18 ar 
    20   17   19 ar 
    21   17   20 ar 
    22    1   21 1  
    23    3   22 1  
    24    3   23 1  
    25    5   24 1  
    26    8   25 1  
    27    9   26 1  
    28   10   27 1  
    29   11   28 1  
@<TRIPOS>SUBSTRUCTURE
     1 M0N         1

