2vf6_ligand
  -I-interpret- 

 32 33  0  0  0  0  0  0  0  0999 V2000
   14.1400  -34.4490   26.7590 O   0  0  0  0  0
   15.3880  -34.3620   26.0790 C   0  0  0  0  0
   15.3680  -33.1610   25.1570 C   0  0  0  0  0
   15.0040  -31.8640   25.8060 C   0  0  0  0  0
   14.2950  -31.6150   26.9740 C   0  0  0  0  0
   14.2430  -30.2240   27.1530 N   0  0  0  0  0
   14.9230  -29.6320   26.0900 C   0  0  0  0  0
   15.1700  -28.2900   25.7820 C   0  0  0  0  0
   15.8920  -27.9960   24.6150 C   0  0  0  0  0
   16.3640  -29.0380   23.8050 C   0  0  0  0  0
   16.0970  -30.3780   24.1250 C   0  0  0  0  0
   15.3670  -30.6340   25.2590 N   0  0  0  0  0
   16.7490  -34.2120   27.2860 P   0  0  0  0  0
   18.0550  -34.0480   26.5420 O   0  0  0  0  0
   16.5450  -33.0180   28.1820 O   0  0  0  0  0
   16.7950  -35.4650   28.1430 O   0  0  0  0  0
   15.6400  -35.8640   25.0890 P   0  0  0  0  0
   17.0070  -35.8070   24.4160 O   0  0  0  0  0
   14.6660  -35.8620   23.9620 O   0  0  0  0  0
   15.5920  -37.0550   26.0220 O   0  0  0  0  0
   14.0061  -33.6555   27.2825 H   0  0  0  0  0
   14.6053  -33.3582   24.4037 H   0  0  0  0  0
   16.3817  -33.0447   24.7735 H   0  0  0  0  0
   13.8576  -32.3650   27.6331 H   0  0  0  0  0
   14.8106  -27.4924   26.4323 H   0  0  0  0  0
   16.0853  -26.9594   24.3391 H   0  0  0  0  0
   16.9467  -28.8042   22.9140 H   0  0  0  0  0
   16.4578  -31.1897   23.4932 H   0  0  0  0  0
   18.1925  -34.8054   25.9684 H   0  0  0  0  0
   16.9248  -36.2317   27.5801 H   0  0  0  0  0
   17.6931  -35.8052   25.0874 H   0  0  0  0  0
   16.2580  -36.9516   26.7056 H   0  0  0  0  0
  1  2  1  0  0  0
  2  3  1  0  0  0
  2 13  1  0  0  0
  2 17  1  0  0  0
  3  4  1  0  0  0
  4  5  4  0  0  0
  4 12  4  0  0  0
  5  6  4  0  0  0
  6  7  4  0  0  0
  7  8  4  0  0  0
  7 12  4  0  0  0
  8  9  4  0  0  0
  9 10  4  0  0  0
 10 11  4  0  0  0
 11 12  4  0  0  0
 13 14  1  0  0  0
 13 15  2  0  0  0
 13 16  1  0  0  0
 17 18  1  0  0  0
 17 19  2  0  0  0
 17 20  1  0  0  0
  1 21  1  0  0  0
  3 22  1  0  0  0
  3 23  1  0  0  0
  5 24  1  0  0  0
  8 25  1  0  0  0
  9 26  1  0  0  0
 10 27  1  0  0  0
 11 28  1  0  0  0
 14 29  1  0  0  0
 16 30  1  0  0  0
 18 31  1  0  0  0
 20 32  1  0  0  0
M  END
$$$$
