1nu8_ligand
  -I-interpret- 

 59 59  0  0  0  0  0  0  0  0999 V2000
   64.3840   73.9810   69.2100 N   0  3  0  0  0
   65.7640   73.4560   69.1910 C   0  0  0  0  0
   65.7780   72.0970   68.4740 C   0  0  0  0  0
   65.0510   71.1730   68.8830 O   0  0  0  0  0
   66.3130   73.2970   70.6330 C   0  0  0  0  0
   66.1200   74.5790   71.4490 C   0  0  0  0  0
   67.7790   72.8950   70.6060 C   0  0  0  0  0
   66.4390   74.4340   72.9500 C   0  0  0  0  0
   66.6090   71.9670   67.4380 N   0  0  0  0  0
   66.6670   70.7270   66.6340 C   0  0  0  0  0
   67.4330   69.4950   67.1130 C   0  0  0  0  0
   68.7420   69.5610   67.4480 O   0  0  0  0  0
   67.4580   71.1530   65.4180 C   0  0  0  0  0
   68.3930   72.2210   65.9390 C   0  0  0  0  0
   67.6510   72.9290   67.0220 C   0  0  0  0  0
   66.4960   69.0400   68.1510 N   0  3  0  0  0
   66.9020   67.9490   69.0320 C   0  0  0  0  0
   65.7190   67.0690   69.4870 C   0  0  0  0  0
   64.7620   67.5710   70.0860 O   0  0  0  0  0
   67.7540   68.4200   70.3030 C   0  0  0  0  0
   67.6310   67.4220   71.4840 C   0  0  0  0  0
   67.3350   69.7690   70.7880 C   0  0  0  0  0
   68.9270   67.2260   72.2750 C   0  0  0  0  0
   65.7170   65.8420   69.2880 O   0  0  0  0  0
   64.0448   74.0770   68.2528 H   0  0  0  0  0
   63.7829   73.3352   69.7219 H   0  0  0  0  0
   64.3744   74.8922   69.6683 H   0  0  0  0  0
   66.4026   74.1614   68.6593 H   0  0  0  0  0
   65.7444   72.5046   71.1198 H   0  0  0  0  0
   65.0676   74.8519   71.3710 H   0  0  0  0  0
   66.8095   75.3209   71.0461 H   0  0  0  0  0
   68.3653   73.6943   70.1527 H   0  0  0  0  0
   68.1256   72.7213   71.6247 H   0  0  0  0  0
   67.8934   71.9822   70.0213 H   0  0  0  0  0
   65.7873   73.6775   73.3872 H   0  0  0  0  0
   67.4796   74.1332   73.0716 H   0  0  0  0  0
   66.2749   75.3891   73.4489 H   0  0  0  0  0
   65.6297   70.3967   66.5784 H   0  0  0  0  0
   67.6501   68.8019   66.3003 H   0  0  0  0  0
   69.0451   68.6924   67.7224 H   0  0  0  0  0
   66.8159   71.5228   64.6186 H   0  0  0  0  0
   67.9963   70.3204   64.9652 H   0  0  0  0  0
   68.6843   72.9099   65.1462 H   0  0  0  0  0
   69.3179   71.7846   66.3160 H   0  0  0  0  0
   68.3023   73.2123   67.8488 H   0  0  0  0  0
   67.2260   73.8726   66.6798 H   0  0  0  0  0
   65.6883   68.6824   67.6409 H   0  0  0  0  0
   66.3701   69.8443   68.7656 H   0  0  0  0  0
   67.5604   67.3438   68.4087 H   0  0  0  0  0
   68.7891   68.4599   69.9639 H   0  0  0  0  0
   67.3619   66.4540   71.0613 H   0  0  0  0  0
   66.8909   67.8282   72.1735 H   0  0  0  0  0
   67.4770   70.5001   69.9921 H   0  0  0  0  0
   66.2835   69.7405   71.0736 H   0  0  0  0  0
   67.9398   70.0474   71.6510 H   0  0  0  0  0
   69.7022   66.8438   71.6109 H   0  0  0  0  0
   69.2438   68.1813   72.6934 H   0  0  0  0  0
   68.7545   66.5138   73.0819 H   0  0  0  0  0
   66.5155   65.5942   68.8161 H   0  0  0  0  0
  1  2  1  0  0  0
  2  3  1  0  0  0
  2  5  1  0  0  0
  3  4  2  0  0  0
  3  9  1  0  0  0
  5  6  1  0  0  0
  5  7  1  0  0  0
  6  8  1  0  0  0
  9 10  1  0  0  0
  9 15  1  0  0  0
 10 11  1  0  0  0
 10 13  1  0  0  0
 11 12  1  0  0  0
 11 16  1  0  0  0
 13 14  1  0  0  0
 14 15  1  0  0  0
 16 17  1  0  0  0
 17 18  1  0  0  0
 17 20  1  0  0  0
 18 19  2  0  0  0
 18 24  1  0  0  0
 20 21  1  0  0  0
 20 22  1  0  0  0
 21 23  1  0  0  0
  1 25  1  0  0  0
  1 26  1  0  0  0
  1 27  1  0  0  0
  2 28  1  0  0  0
  5 29  1  0  0  0
  6 30  1  0  0  0
  6 31  1  0  0  0
  7 32  1  0  0  0
  7 33  1  0  0  0
  7 34  1  0  0  0
  8 35  1  0  0  0
  8 36  1  0  0  0
  8 37  1  0  0  0
 10 38  1  0  0  0
 11 39  1  0  0  0
 12 40  1  0  0  0
 13 41  1  0  0  0
 13 42  1  0  0  0
 14 43  1  0  0  0
 14 44  1  0  0  0
 15 45  1  0  0  0
 15 46  1  0  0  0
 16 47  1  0  0  0
 16 48  1  0  0  0
 17 49  1  0  0  0
 20 50  1  0  0  0
 21 51  1  0  0  0
 21 52  1  0  0  0
 22 53  1  0  0  0
 22 54  1  0  0  0
 22 55  1  0  0  0
 23 56  1  0  0  0
 23 57  1  0  0  0
 23 58  1  0  0  0
 24 59  1  0  0  0
M  END
$$$$
