1yqy_ligand
  -I-interpret- 

 42 43  0  0  0  0  0  0  0  0999 V2000
    9.2270   20.0170   27.7680 C   0  0  0  0  0
    8.2930   19.4750   28.7070 C   0  0  0  0  0
    8.0500   20.1670   29.9210 C   0  0  0  0  0
    8.7620   21.3710   30.1500 C   0  0  0  0  0
    9.7370   21.8950   29.2310 C   0  0  0  0  0
    9.9470   21.2150   28.0390 C   0  0  0  0  0
    8.5230   22.0660   31.2740 F   0  0  0  0  0
    7.0320   19.6580   30.9070 C   0  0  0  0  0
    9.4700   19.1960   26.2210 S   0  0  0  0  0
   10.4390   17.7900   26.5140 N   0  0  0  0  0
   11.8990   17.9240   26.5070 C   0  0  0  0  0
   12.4690   18.4380   27.8460 C   0  0  0  0  0
   13.3900   19.4380   27.7230 N   0  0  0  0  0
   13.9690   19.9520   28.8730 O   0  0  0  0  0
   12.1600   17.9990   28.9170 O   0  0  0  0  0
   10.3620   19.9620   25.4200 O   0  0  0  0  0
    8.1790   18.7420   25.7310 O   0  0  0  0  0
   12.6710   16.6260   26.2000 C   0  0  0  0  0
   12.3710   15.9420   24.8220 C   0  0  0  0  0
   13.1600   14.6640   24.5620 C   0  0  0  0  0
   14.5420   14.9270   24.7000 O   0  0  0  0  0
   14.9420   15.4300   25.9930 C   0  0  0  0  0
   14.2100   16.7480   26.3050 C   0  0  0  0  0
    7.7742   18.5409   28.4917 H   0  0  0  0  0
   10.2957   22.8014   29.4643 H   0  0  0  0  0
   10.6624   21.5979   27.3113 H   0  0  0  0  0
    6.0522   19.6237   30.4306 H   0  0  0  0  0
    7.3137   18.6571   31.2341 H   0  0  0  0  0
    6.9958   20.3261   31.7675 H   0  0  0  0  0
   10.0016   16.8852   26.6883 H   0  0  0  0  0
   12.0492   18.6428   25.7014 H   0  0  0  0  0
   13.6468   19.7994   26.8044 H   0  0  0  0  0
   14.5918   20.6427   28.6351 H   0  0  0  0  0
   12.2775   15.9950   26.9969 H   0  0  0  0  0
   12.6534   16.6533   24.0459 H   0  0  0  0  0
   11.3158   15.6689   24.8257 H   0  0  0  0  0
   12.9566   14.3108   23.5511 H   0  0  0  0  0
   12.8620   13.9005   25.2806 H   0  0  0  0  0
   16.0165   15.6133   25.9861 H   0  0  0  0  0
   14.6877   14.6933   26.7551 H   0  0  0  0  0
   14.4513   17.0265   27.3308 H   0  0  0  0  0
   14.5345   17.4886   25.5740 H   0  0  0  0  0
  1  2  4  0  0  0
  1  6  4  0  0  0
  1  9  1  0  0  0
  2  3  4  0  0  0
  3  4  4  0  0  0
  3  8  1  0  0  0
  4  5  4  0  0  0
  4  7  1  0  0  0
  5  6  4  0  0  0
  9 10  1  0  0  0
  9 16  2  0  0  0
  9 17  2  0  0  0
 10 11  1  0  0  0
 11 12  1  0  0  0
 11 18  1  0  0  0
 12 13  1  0  0  0
 12 15  2  0  0  0
 13 14  1  0  0  0
 18 19  1  0  0  0
 18 23  1  0  0  0
 19 20  1  0  0  0
 20 21  1  0  0  0
 21 22  1  0  0  0
 22 23  1  0  0  0
  2 24  1  0  0  0
  5 25  1  0  0  0
  6 26  1  0  0  0
  8 27  1  0  0  0
  8 28  1  0  0  0
  8 29  1  0  0  0
 10 30  1  0  0  0
 11 31  1  0  0  0
 13 32  1  0  0  0
 14 33  1  0  0  0
 18 34  1  0  0  0
 19 35  1  0  0  0
 19 36  1  0  0  0
 20 37  1  0  0  0
 20 38  1  0  0  0
 22 39  1  0  0  0
 22 40  1  0  0  0
 23 41  1  0  0  0
 23 42  1  0  0  0
M  END
$$$$
