1l6y_ligand
  -I-interpret- 

 32 31  0  0  0  0  0  0  0  0999 V2000
   22.9170   86.5260   54.0730 C   0  0  0  0  0
   24.4170   86.2690   54.2110 C   0  0  0  0  0
   25.2610   87.1490   53.2360 C   0  0  0  0  0
   26.8220   87.0210   53.4680 C   0  0  0  0  0
   27.4980   86.1100   52.8380 O   0  0  0  0  0
   27.3540   87.8580   54.2740 O   0  0  0  0  0
   21.8640   91.6230   48.9630 O   0  0  0  0  0
   22.2960   90.4820   49.2360 C   0  0  0  0  0
   23.4240   90.0500   48.9030 O   0  0  0  0  0
   21.3890   89.5150   49.9800 C   0  0  0  0  0
   21.3710   89.7190   51.4920 C   0  0  0  0  0
   20.8360   88.5110   52.2010 C   0  0  0  0  0
   21.0610   88.3950   53.7240 C   0  0  0  0  0
   22.5550   88.0680   54.0960 C   0  0  0  0  0
   22.4176   86.0528   54.9185 H   0  0  0  0  0
   22.5955   86.1215   53.1133 H   0  0  0  0  0
   24.6044   85.2226   53.9703 H   0  0  0  0  0
   24.7103   86.5177   55.2309 H   0  0  0  0  0
   24.9865   88.1894   53.4102 H   0  0  0  0  0
   25.0502   86.8111   52.2214 H   0  0  0  0  0
   26.9031   85.5942   52.2887 H   0  0  0  0  0
   23.5290   89.1515   49.2244 H   0  0  0  0  0
   21.7666   88.5096   49.7940 H   0  0  0  0  0
   20.3740   89.6814   49.6193 H   0  0  0  0  0
   20.7256   90.5676   51.7190 H   0  0  0  0  0
   22.3924   89.8943   51.8297 H   0  0  0  0  0
   21.3697   87.6651   51.7677 H   0  0  0  0  0
   19.7545   88.5606   52.0745 H   0  0  0  0  0
   20.4388   87.5794   54.0924 H   0  0  0  0  0
   20.8074   89.3552   54.1732 H   0  0  0  0  0
   23.1828   88.5536   53.3489 H   0  0  0  0  0
   22.7127   88.4169   55.1165 H   0  0  0  0  0
  1  2  1  0  0  0
 14  1  1  0  0  0
  2  3  1  0  0  0
  3  4  1  0  0  0
  4  5  1  0  0  0
  4  6  2  0  0  0
  8  7  2  0  0  0
  8  9  1  0  0  0
 10  8  1  0  0  0
 11 10  1  0  0  0
 12 11  1  0  0  0
 13 12  1  0  0  0
 13 14  1  0  0  0
  1 15  1  0  0  0
  1 16  1  0  0  0
  2 17  1  0  0  0
  2 18  1  0  0  0
  3 19  1  0  0  0
  3 20  1  0  0  0
  5 21  1  0  0  0
  9 22  1  0  0  0
 10 23  1  0  0  0
 10 24  1  0  0  0
 11 25  1  0  0  0
 11 26  1  0  0  0
 12 27  1  0  0  0
 12 28  1  0  0  0
 13 29  1  0  0  0
 13 30  1  0  0  0
 14 31  1  0  0  0
 14 32  1  0  0  0
M  END
$$$$
