4igr_ligand
  -I-interpret- 

 34 33  0  0  0  0  0  0  0  0999 V2000
   -6.5720   30.4960  -15.9980 O   0  0  0  0  0
   -5.6530   28.2060  -17.6080 C   0  0  0  0  0
   -4.2030   28.0060  -15.4090 C   0  0  0  0  0
   -2.3900   31.8320  -12.8640 O   0  0  0  0  0
   -1.0700   30.3160  -13.9220 O   0  0  0  0  0
   -3.3770   26.8790  -14.7850 C   0  0  0  0  0
   -6.8890   28.1530  -16.7120 C   0  0  0  0  0
   -3.4370   29.7820  -13.6590 C   0  0  0  0  0
   -3.5970   29.3980  -15.1390 C   0  0  0  0  0
   -4.3660   27.6940  -16.9230 C   0  0  0  0  0
   -4.7450   30.3560  -13.1440 N   0  3  0  0  0
   -2.1770   30.7200  -13.4660 C   0  0  0  0  0
   -2.1250   27.0250  -14.7320 O   0  0  0  0  0
   -4.0530   25.8900  -14.3780 O   0  0  0  0  0
   -7.4540   27.0720  -16.5260 O   0  0  0  0  0
   -7.3450   29.3210  -16.1220 N   0  0  0  0  0
   -8.6680   29.5330  -15.5550 C   0  0  0  0  0
   -7.0906   31.1740  -15.5587 H   0  0  0  0  0
   -5.4875   29.2502  -17.8732 H   0  0  0  0  0
   -5.8444   27.5608  -18.4654 H   0  0  0  0  0
   -5.1878   28.0470  -14.9437 H   0  0  0  0  0
   -3.3169   31.8907  -12.6212 H   0  0  0  0  0
   -3.2306   28.9034  -13.0478 H   0  0  0  0  0
   -4.2858   30.1231  -15.5726 H   0  0  0  0  0
   -2.5933   29.3846  -15.5639 H   0  0  0  0  0
   -3.5403   28.2007  -17.4226 H   0  0  0  0  0
   -4.3981   26.6073  -17.0019 H   0  0  0  0  0
   -4.6397   30.6111  -12.1620 H   0  0  0  0  0
   -4.9889   31.1841  -13.6874 H   0  0  0  0  0
   -5.4820   29.6571  -13.2379 H   0  0  0  0  0
   -4.9846   26.0498  -14.5459 H   0  0  0  0  0
   -9.4212   29.3896  -16.3298 H   0  0  0  0  0
   -8.8346   28.8195  -14.7480 H   0  0  0  0  0
   -8.7359   30.5482  -15.1640 H   0  0  0  0  0
 16  1  1  0  0  0
  2  7  1  0  0  0
 10  2  1  0  0  0
  3  6  1  0  0  0
  9  3  1  0  0  0
  3 10  1  0  0  0
 12  4  1  0  0  0
 12  5  2  0  0  0
  6 13  2  0  0  0
  6 14  1  0  0  0
  7 15  2  0  0  0
  7 16  1  0  0  0
  8  9  1  0  0  0
  8 11  1  0  0  0
  8 12  1  0  0  0
 16 17  1  0  0  0
  1 18  1  0  0  0
  2 19  1  0  0  0
  2 20  1  0  0  0
  3 21  1  0  0  0
  4 22  1  0  0  0
  8 23  1  0  0  0
  9 24  1  0  0  0
  9 25  1  0  0  0
 10 26  1  0  0  0
 10 27  1  0  0  0
 11 28  1  0  0  0
 11 29  1  0  0  0
 11 30  1  0  0  0
 14 31  1  0  0  0
 17 32  1  0  0  0
 17 33  1  0  0  0
 17 34  1  0  0  0
M  END
$$$$
