2fix_ligand
  -I-interpret- 

 45 48  0  0  0  0  0  0  0  0999 V2000
   49.4390   -7.4190   22.7650 C   0  0  0  0  0
   48.0420   -7.1840   22.8550 C   0  0  0  0  0
   47.5550   -5.8640   22.9660 C   0  0  0  0  0
   48.4120   -4.7910   22.9920 C   0  0  0  0  0
   49.8130   -4.9770   22.9110 C   0  0  0  0  0
   50.3380   -6.3120   22.7940 C   0  0  0  0  0
   50.8060   -3.5230   22.9680 S   0  0  0  0  0
   49.9390   -2.3670   23.0470 O   0  0  0  0  0
   51.7180   -3.5610   21.8490 O   0  0  0  0  0
   51.7010   -3.5390   24.3350 N   0  0  0  0  0
   51.1820   -3.1360   25.6750 C   0  0  0  0  0
   49.8940   -2.7300   25.9710 N   0  0  0  0  0
   49.9070   -2.4390   27.2980 C   0  0  0  0  0
   48.8500   -1.9780   28.0470 C   0  0  0  0  0
   49.0250   -1.7080   29.3950 C   0  0  0  0  0
   50.3060   -1.9100   29.9990 C   0  0  0  0  0
   51.4080   -2.3850   29.2420 C   0  0  0  0  0
   51.1850   -2.6730   27.7860 C   0  0  0  0  0
   51.9820   -3.1070   26.7990 O   0  0  0  0  0
   45.8710   -5.5850   23.0720 Cl  0  0  0  0  0
   52.0490   -6.6450   22.6780 Cl  0  0  0  0  0
   47.8850   -1.2230   30.0570 O   0  0  0  0  0
   48.0420   -0.7980   31.3970 C   0  0  0  0  0
   55.1920   -3.2130   29.8120 C   0  0  0  0  0
   55.3750   -2.8770   31.1680 C   0  0  0  0  0
   54.2940   -2.3830   31.9210 C   0  0  0  0  0
   53.0110   -2.2290   31.3160 C   0  0  0  0  0
   52.7990   -2.5630   29.9350 C   0  0  0  0  0
   53.9230   -3.0510   29.2150 C   0  0  0  0  0
   54.4710   -2.0590   33.2240 N   0  0  0  0  0
   49.8211   -8.4358   22.6746 H   0  0  0  0  0
   47.3458   -8.0225   22.8384 H   0  0  0  0  0
   48.0078   -3.7822   23.0762 H   0  0  0  0  0
   52.6725   -3.8426   24.2685 H   0  0  0  0  0
   47.8764   -1.8252   27.5814 H   0  0  0  0  0
   50.4378   -1.6952   31.0595 H   0  0  0  0  0
   48.3956   -1.6326   32.0024 H   0  0  0  0  0
   48.7677    0.0144   31.4365 H   0  0  0  0  0
   47.0833   -0.4495   31.7810 H   0  0  0  0  0
   56.0272   -3.5966   29.2260 H   0  0  0  0  0
   56.3531   -2.9996   31.6332 H   0  0  0  0  0
   52.1790   -1.8521   31.9108 H   0  0  0  0  0
   53.8008   -3.3097   28.1632 H   0  0  0  0  0
   55.3869   -2.1732   33.6581 H   0  0  0  0  0
   53.6884   -1.7007   33.7713 H   0  0  0  0  0
  1  2  4  0  0  0
  6  1  4  0  0  0
  3  2  4  0  0  0
  4  3  4  0  0  0
  3 20  1  0  0  0
  5  4  4  0  0  0
  5  6  4  0  0  0
  7  5  1  0  0  0
  6 21  1  0  0  0
  7  8  2  0  0  0
  7  9  2  0  0  0
 10  7  1  0  0  0
 11 10  1  0  0  0
 11 12  4  0  0  0
 19 11  4  0  0  0
 13 12  4  0  0  0
 13 14  4  0  0  0
 18 13  4  0  0  0
 15 14  4  0  0  0
 16 15  4  0  0  0
 15 22  1  0  0  0
 17 16  4  0  0  0
 17 18  4  0  0  0
 28 17  1  0  0  0
 18 19  4  0  0  0
 22 23  1  0  0  0
 25 24  4  0  0  0
 24 29  4  0  0  0
 26 25  4  0  0  0
 27 26  4  0  0  0
 26 30  1  0  0  0
 27 28  4  0  0  0
 28 29  4  0  0  0
  1 31  1  0  0  0
  2 32  1  0  0  0
  4 33  1  0  0  0
 10 34  1  0  0  0
 14 35  1  0  0  0
 16 36  1  0  0  0
 23 37  1  0  0  0
 23 38  1  0  0  0
 23 39  1  0  0  0
 24 40  1  0  0  0
 25 41  1  0  0  0
 27 42  1  0  0  0
 29 43  1  0  0  0
 30 44  1  0  0  0
 30 45  1  0  0  0
M  END
$$$$
