2xnp_ligand
  -I-interpret- 

 69 73  0  0  0  0  0  0  0  0999 V2000
  -26.8380   -1.2510   13.6490 C   0  0  0  0  0
  -26.3110   -1.8480   14.9740 C   0  0  0  0  0
  -25.0880   -2.4870   14.6880 O   0  0  0  0  0
  -24.5630   -3.4050   15.6230 C   0  0  0  0  0
  -25.3160   -3.7060   16.8750 C   0  0  0  0  0
  -24.6990   -4.6340   17.8670 C   0  0  0  0  0
  -26.0410   -6.0280   20.8390 N   0  0  0  0  0
  -25.3470   -6.1620   19.5960 C   0  0  0  0  0
  -25.3090   -4.9020   19.0310 N   0  0  0  0  0
  -25.9620   -3.9740   19.8690 C   0  0  0  0  0
  -26.2190   -2.5100   19.7450 C   0  0  0  0  0
  -26.9360   -1.8180   20.8040 C   0  0  0  0  0
  -27.3880   -2.5920   21.9420 C   0  0  0  0  0
  -28.0810   -1.9690   23.0030 O   0  0  0  0  0
  -29.0850   -2.8440   23.5230 C   0  0  0  0  0
  -30.4220   -2.1050   23.7740 C   0  0  0  0  0
  -30.1890   -0.7550   24.4930 C   0  0  0  0  0
  -29.3360   -0.8500   25.6920 N   0  3  0  0  0
  -29.0850    0.4060   26.4420 C   0  0  0  0  0
  -28.0690   -1.6130   25.4850 C   0  0  0  0  0
  -28.3150   -3.0170   24.8530 C   0  0  0  0  0
  -27.1430   -4.0200   22.0610 C   0  0  0  0  0
  -26.4270   -4.7070   20.9760 C   0  0  0  0  0
  -23.4020   -5.2640   17.6240 C   0  0  0  0  0
  -22.6720   -4.9710   16.3600 C   0  0  0  0  0
  -23.2520   -4.0380   15.3660 C   0  0  0  0  0
  -22.4350   -3.7670   14.0760 C   0  0  0  0  0
  -22.9500   -2.8950   13.0170 N   0  0  0  0  0
  -21.3930   -4.3080   13.9570 O   0  0  0  0  0
  -26.0460   -0.7240   16.0120 C   0  0  0  0  0
  -24.7430   -0.0600   16.0460 C   0  0  0  0  0
  -24.5160    1.0090   17.0070 C   0  0  0  0  0
  -25.5930    1.4160   17.9450 C   0  0  0  0  0
  -26.9240    0.7480   17.9050 C   0  0  0  0  0
  -27.1460   -0.2940   16.9540 C   0  0  0  0  0
  -28.5360   -0.9970   16.9110 C   0  0  0  0  0
  -29.3350   -0.3830   17.8090 F   0  0  0  0  0
  -28.3990   -2.3040   17.2720 F   0  0  0  0  0
  -29.1130   -0.9090   15.6580 F   0  0  0  0  0
  -27.7692   -0.7167   13.8377 H   0  0  0  0  0
  -26.0979   -0.5615   13.2429 H   0  0  0  0  0
  -27.0172   -2.0553   12.9355 H   0  0  0  0  0
  -27.0457   -2.5395   15.3864 H   0  0  0  0  0
  -26.2927   -3.2591   17.0605 H   0  0  0  0  0
  -24.9301   -7.0778   19.1769 H   0  0  0  0  0
  -25.8723   -1.9635   18.8680 H   0  0  0  0  0
  -27.1280   -0.7468   20.7432 H   0  0  0  0  0
  -29.3843   -3.7133   22.9375 H   0  0  0  0  0
  -31.0523   -2.7312   24.4055 H   0  0  0  0  0
  -30.8972   -1.9096   22.8127 H   0  0  0  0  0
  -31.1634   -0.3911   24.8188 H   0  0  0  0  0
  -29.6810   -0.0976   23.7874 H   0  0  0  0  0
  -29.9388   -1.3989   26.3050 H   0  0  0  0  0
  -28.5930    1.1260   25.7881 H   0  0  0  0  0
  -30.0335    0.8166   26.7883 H   0  0  0  0  0
  -28.4448    0.1945   27.2985 H   0  0  0  0  0
  -27.6013   -1.7594   26.4586 H   0  0  0  0  0
  -27.4400   -1.0420   24.8021 H   0  0  0  0  0
  -27.3598   -3.5066   24.6632 H   0  0  0  0  0
  -28.8994   -3.6308   25.5384 H   0  0  0  0  0
  -27.4836   -4.5708   22.9378 H   0  0  0  0  0
  -22.9734   -5.9422   18.3618 H   0  0  0  0  0
  -21.7093   -5.4437   16.1656 H   0  0  0  0  0
  -22.4065   -2.7505   12.1660 H   0  0  0  0  0
  -23.8520   -2.4325   13.1308 H   0  0  0  0  0
  -23.9518   -0.3622   15.3599 H   0  0  0  0  0
  -23.5504    1.5136   17.0385 H   0  0  0  0  0
  -25.4081    2.2099   18.6686 H   0  0  0  0  0
  -27.7158    1.0498   18.5907 H   0  0  0  0  0
  2  1  1  0  0  0
  3  2  1  0  0  0
  2 30  1  0  0  0
  4  3  1  0  0  0
  5  4  4  0  0  0
  4 26  4  0  0  0
  6  5  4  0  0  0
  9  6  1  0  0  0
  6 24  4  0  0  0
  8  7  4  0  0  0
  7 23  4  0  0  0
  8  9  4  0  0  0
  9 10  4  0  0  0
 10 11  4  0  0  0
 10 23  4  0  0  0
 11 12  4  0  0  0
 12 13  4  0  0  0
 13 14  1  0  0  0
 13 22  4  0  0  0
 14 15  1  0  0  0
 15 16  1  0  0  0
 15 21  1  0  0  0
 16 17  1  0  0  0
 17 18  1  0  0  0
 18 19  1  0  0  0
 18 20  1  0  0  0
 20 21  1  0  0  0
 22 23  4  0  0  0
 24 25  4  0  0  0
 25 26  4  0  0  0
 26 27  1  0  0  0
 27 28  1  0  0  0
 27 29  2  0  0  0
 30 31  4  0  0  0
 30 35  4  0  0  0
 31 32  4  0  0  0
 32 33  4  0  0  0
 33 34  4  0  0  0
 34 35  4  0  0  0
 35 36  1  0  0  0
 36 37  1  0  0  0
 36 38  1  0  0  0
 36 39  1  0  0  0
  1 40  1  0  0  0
  1 41  1  0  0  0
  1 42  1  0  0  0
  2 43  1  0  0  0
  5 44  1  0  0  0
  8 45  1  0  0  0
 11 46  1  0  0  0
 12 47  1  0  0  0
 15 48  1  0  0  0
 16 49  1  0  0  0
 16 50  1  0  0  0
 17 51  1  0  0  0
 17 52  1  0  0  0
 18 53  1  0  0  0
 19 54  1  0  0  0
 19 55  1  0  0  0
 19 56  1  0  0  0
 20 57  1  0  0  0
 20 58  1  0  0  0
 21 59  1  0  0  0
 21 60  1  0  0  0
 22 61  1  0  0  0
 24 62  1  0  0  0
 25 63  1  0  0  0
 28 64  1  0  0  0
 28 65  1  0  0  0
 31 66  1  0  0  0
 32 67  1  0  0  0
 33 68  1  0  0  0
 34 69  1  0  0  0
M  END
$$$$
