### 
### Created by X-TOOL on Mon Sep 10 21:13:05 2018
### 

@<TRIPOS>MOLECULE
2xnp_ligand
   68    72     1     0     0
SMALL
GAST_HUCK


@<TRIPOS>ATOM
      1 C01       -26.8380   -1.2510   13.6490 C.3       1 WCX        -0.0186
      2 C02       -26.3110   -1.8480   14.9740 C.3       1 WCX         0.1287
      3 O03       -25.0880   -2.4870   14.6880 O.3       1 WCX        -0.2930
      4 C04       -24.5630   -3.4050   15.6230 C.ar      1 WCX         0.1114
      5 C05       -25.3160   -3.7060   16.8750 C.ar      1 WCX         0.0049
      6 C06       -24.6990   -4.6340   17.8670 C.ar      1 WCX         0.0906
      7 N09       -26.0410   -6.0280   20.8390 N.2       1 WCX        -0.3060
      8 C08       -25.3470   -6.1620   19.5960 C.2       1 WCX         0.1201
      9 N07       -25.3090   -4.9020   19.0310 N.pl3     1 WCX        -0.1974
     10 C23       -25.9620   -3.9740   19.8690 C.ar      1 WCX         0.0937
     11 C22       -26.2190   -2.5100   19.7450 C.ar      1 WCX        -0.0413
     12 C21       -26.9360   -1.8180   20.8040 C.ar      1 WCX        -0.0425
     13 C12       -27.3880   -2.5920   21.9420 C.ar      1 WCX         0.0776
     14 O13       -28.0810   -1.9690   23.0030 O.3       1 WCX        -0.3222
     15 C14       -29.0850   -2.8440   23.5230 C.3       1 WCX         0.0754
     16 C15       -30.4220   -2.1050   23.7740 C.3       1 WCX        -0.0412
     17 C16       -30.1890   -0.7550   24.4930 C.3       1 WCX        -0.1107
     18 N17       -29.3360   -0.8500   25.6920 N.4       1 WCX         0.4009
     19 C18       -29.0850    0.4060   26.4420 C.3       1 WCX        -0.1256
     20 C19       -28.0690   -1.6130   25.4850 C.3       1 WCX        -0.1107
     21 C20       -28.3150   -3.0170   24.8530 C.3       1 WCX        -0.0412
     22 C11       -27.1430   -4.0200   22.0610 C.ar      1 WCX        -0.0333
     23 C10       -26.4270   -4.7070   20.9760 C.ar      1 WCX         0.0286
     24 C24       -23.4020   -5.2640   17.6240 C.ar      1 WCX        -0.0343
     25 C25       -22.6720   -4.9710   16.3600 C.ar      1 WCX        -0.0554
     26 C26       -23.2520   -4.0380   15.3660 C.ar      1 WCX         0.0699
     27 C27       -22.4350   -3.7670   14.0760 C.2       1 WCX         0.1908
     28 N28       -22.9500   -2.8950   13.0170 N.am      1 WCX        -0.3032
     29 O29       -21.3930   -4.3080   13.9570 O.2       1 WCX        -0.3949
     30 C30       -26.0460   -0.7240   16.0120 C.ar      1 WCX         0.0244
     31 C31       -24.7430   -0.0600   16.0460 C.ar      1 WCX        -0.0263
     32 C32       -24.5160    1.0090   17.0070 C.ar      1 WCX        -0.0405
     33 C33       -25.5930    1.4160   17.9450 C.ar      1 WCX        -0.0392
     34 C34       -26.9240    0.7480   17.9050 C.ar      1 WCX        -0.0379
     35 C35       -27.1460   -0.2940   16.9540 C.ar      1 WCX         0.0519
     36 C36       -28.5360   -0.9970   16.9110 C.3       1 WCX         0.3706
     37 F39       -29.3350   -0.3830   17.8090 F         1 WCX        -0.2263
     38 F38       -28.3990   -2.3040   17.2720 F         1 WCX        -0.2263
     39 F37       -29.1130   -0.9090   15.6580 F         1 WCX        -0.2263
     40 H         -27.7692   -0.7167   13.8377 H         1 WCX         0.0291
     41 H         -26.0979   -0.5615   13.2429 H         1 WCX         0.0291
     42 H         -27.0172   -2.0553   12.9355 H         1 WCX         0.0291
     43 H         -27.0457   -2.5395   15.3864 H         1 WCX         0.0895
     44 H         -26.2927   -3.2591   17.0605 H         1 WCX         0.0503
     45 H         -24.9301   -7.0778   19.1769 H         1 WCX         0.1367
     46 H         -25.8723   -1.9635   18.8680 H         1 WCX         0.0543
     47 H         -27.1280   -0.7468   20.7432 H         1 WCX         0.0494
     48 H         -29.3843   -3.7133   22.9375 H         1 WCX         0.0645
     49 H         -31.0523   -2.7312   24.4055 H         1 WCX         0.0274
     50 H         -30.8972   -1.9096   22.8127 H         1 WCX         0.0274
     51 H         -31.1634   -0.3911   24.8188 H         1 WCX         0.0018
     52 H         -29.6810   -0.0976   23.7874 H         1 WCX         0.0018
     53 H         -28.5930    1.1260   25.7881 H         1 WCX        -0.0019
     54 H         -30.0335    0.8166   26.7883 H         1 WCX        -0.0019
     55 H         -28.4448    0.1945   27.2985 H         1 WCX        -0.0019
     56 H         -27.6013   -1.7594   26.4586 H         1 WCX         0.0018
     57 H         -27.4400   -1.0420   24.8021 H         1 WCX         0.0018
     58 H         -27.3598   -3.5066   24.6632 H         1 WCX         0.0274
     59 H         -28.8994   -3.6308   25.5384 H         1 WCX         0.0274
     60 H         -27.4836   -4.5708   22.9378 H         1 WCX         0.0462
     61 H         -22.9734   -5.9422   18.3618 H         1 WCX         0.0497
     62 H         -21.7093   -5.4437   16.1656 H         1 WCX         0.0622
     63 H         -22.4065   -2.7505   12.1660 H         1 WCX         0.1801
     64 H         -23.8520   -2.4325   13.1308 H         1 WCX         0.1801
     65 H         -23.9518   -0.3622   15.3599 H         1 WCX         0.0637
     66 H         -23.5504    1.5136   17.0385 H         1 WCX         0.0834
     67 H         -25.4081    2.2099   18.6686 H         1 WCX         0.0648
     68 H         -27.7158    1.0498   18.5907 H         1 WCX         0.0820
@<TRIPOS>BOND
     1    2    1 1  
     2    3    2 1  
     3    2   30 1  
     4    4    3 1  
     5    5    4 ar 
     6    4   26 ar 
     7    6    5 ar 
     8    9    6 1  
     9    6   24 ar 
    10    8    7 2  
    11    7   23 1  
    12    8    9 1  
    13    9   10 1  
    14   10   11 ar 
    15   10   23 ar 
    16   11   12 ar 
    17   12   13 ar 
    18   13   14 1  
    19   13   22 ar 
    20   14   15 1  
    21   15   16 1  
    22   15   21 1  
    23   16   17 1  
    24   17   18 1  
    25   18   19 1  
    26   18   20 1  
    27   20   21 1  
    28   22   23 ar 
    29   24   25 ar 
    30   25   26 ar 
    31   26   27 1  
    32   27   28 am 
    33   27   29 2  
    34   30   31 ar 
    35   30   35 ar 
    36   31   32 ar 
    37   32   33 ar 
    38   33   34 ar 
    39   34   35 ar 
    40   35   36 1  
    41   36   37 1  
    42   36   38 1  
    43   36   39 1  
    44    1   40 1  
    45    1   41 1  
    46    1   42 1  
    47    2   43 1  
    48    5   44 1  
    49    8   45 1  
    50   11   46 1  
    51   12   47 1  
    52   15   48 1  
    53   16   49 1  
    54   16   50 1  
    55   17   51 1  
    56   17   52 1  
    57   19   53 1  
    58   19   54 1  
    59   19   55 1  
    60   20   56 1  
    61   20   57 1  
    62   21   58 1  
    63   21   59 1  
    64   22   60 1  
    65   24   61 1  
    66   25   62 1  
    67   28   63 1  
    68   28   64 1  
    69   31   65 1  
    70   32   66 1  
    71   33   67 1  
    72   34   68 1  
@<TRIPOS>SUBSTRUCTURE
     1 WCX         1

