1h4w_ligand
  -I-interpret- 

 17 17  0  0  0  0  0  0  0  0999 V2000
   50.3420   36.7890   39.3750 C   0  0  0  0  0
   50.3710   35.9320   40.4660 C   0  0  0  0  0
   49.8970   34.5860   40.2460 C   0  0  0  0  0
   49.3980   34.0600   38.9960 C   0  0  0  0  0
   49.3930   35.0100   37.8910 C   0  0  0  0  0
   49.8710   36.3660   38.1130 C   0  0  0  0  0
   50.7960   38.1370   39.5110 C   0  0  0  0  0
   50.9760   38.6780   40.7280 N   0  0  0  0  0
   51.0680   38.9190   38.4750 N   0  0  0  0  0
   50.7336   36.2587   41.4406 H   0  0  0  0  0
   49.9174   33.9066   41.0981 H   0  0  0  0  0
   49.0521   33.0320   38.8880 H   0  0  0  0  0
   49.0344   34.7074   36.9072 H   0  0  0  0  0
   49.8654   37.0735   37.2838 H   0  0  0  0  0
   51.3047   39.6396   40.8151 H   0  0  0  0  0
   50.7839   38.1270   41.5646 H   0  0  0  0  0
   51.3939   39.8733   38.6281 H   0  0  0  0  0
  1  7  1  0  0  0
  1  6  4  0  0  0
  1  2  4  0  0  0
  2  3  4  0  0  0
  3  4  4  0  0  0
  4  5  4  0  0  0
  5  6  4  0  0  0
  7  9  2  0  0  0
  7  8  1  0  0  0
  2 10  1  0  0  0
  3 11  1  0  0  0
  4 12  1  0  0  0
  5 13  1  0  0  0
  6 14  1  0  0  0
  8 15  1  0  0  0
  8 16  1  0  0  0
  9 17  1  0  0  0
M  END
$$$$
