6me5_ligand
  -I-interpret- 

 35 36  0  0  0  0  0  0  0  0999 V2000
   24.6020  -20.5250   47.2830 N   0  0  0  0  0
   23.8010  -22.7700   46.6590 C   0  0  0  0  0
   23.9490  -24.0120   47.3110 C   0  0  0  0  0
   22.7880  -24.7440   47.6240 C   0  0  0  0  0
   22.8810  -25.9750   48.2800 C   0  0  0  0  0
   24.1340  -26.4890   48.6290 C   0  0  0  0  0
   25.2200  -24.5490   47.6380 C   0  0  0  0  0
   27.7220  -25.6420   48.3550 C   0  0  0  0  0
   28.8230  -22.3390   47.1930 C   0  0  0  0  0
   25.2780  -18.3050   46.6230 C   0  0  0  0  0
   24.1710  -19.2710   47.0390 C   0  0  0  0  0
   23.0010  -18.8830   47.1160 O   0  0  0  0  0
   23.7090  -21.6230   47.6840 C   0  0  0  0  0
   25.3000  -25.7890   48.3080 C   0  0  0  0  0
   26.4180  -23.8780   47.3340 C   0  0  0  0  0
   27.6670  -24.4010   47.7110 C   0  0  0  0  0
   26.5410  -26.3120   48.6850 C   0  0  0  0  0
   28.8570  -23.7660   47.4020 O   0  0  0  0  0
   25.5979  -20.7224   47.1845 H   0  0  0  0  0
   22.8846  -22.7892   46.0691 H   0  0  0  0  0
   24.6681  -22.6024   46.0201 H   0  0  0  0  0
   21.8093  -24.3481   47.3529 H   0  0  0  0  0
   21.9767  -26.5344   48.5196 H   0  0  0  0  0
   24.2014  -27.4415   49.1546 H   0  0  0  0  0
   28.6868  -26.0864   48.5994 H   0  0  0  0  0
   28.1531  -22.1103   46.3641 H   0  0  0  0  0
   28.4638  -21.8490   48.0980 H   0  0  0  0  0
   29.8265  -21.9833   46.9595 H   0  0  0  0  0
   25.0653  -17.9182   45.6264 H   0  0  0  0  0
   25.3233  -17.4790   47.3327 H   0  0  0  0  0
   26.2328  -18.8307   46.6140 H   0  0  0  0  0
   22.6831  -21.2571   47.7248 H   0  0  0  0  0
   24.0081  -21.9912   48.6653 H   0  0  0  0  0
   26.3770  -22.9319   46.7943 H   0  0  0  0  0
   26.5873  -27.2489   49.2402 H   0  0  0  0  0
  1 11  1  0  0  0
 13  1  1  0  0  0
  3  2  1  0  0  0
  2 13  1  0  0  0
  3  4  4  0  0  0
  7  3  4  0  0  0
  4  5  4  0  0  0
  6  5  4  0  0  0
 14  6  4  0  0  0
  7 14  4  0  0  0
 15  7  4  0  0  0
 16  8  4  0  0  0
  8 17  4  0  0  0
 18  9  1  0  0  0
 11 10  1  0  0  0
 11 12  2  0  0  0
 17 14  4  0  0  0
 16 15  4  0  0  0
 16 18  1  0  0  0
  1 19  1  0  0  0
  2 20  1  0  0  0
  2 21  1  0  0  0
  4 22  1  0  0  0
  5 23  1  0  0  0
  6 24  1  0  0  0
  8 25  1  0  0  0
  9 26  1  0  0  0
  9 27  1  0  0  0
  9 28  1  0  0  0
 10 29  1  0  0  0
 10 30  1  0  0  0
 10 31  1  0  0  0
 13 32  1  0  0  0
 13 33  1  0  0  0
 15 34  1  0  0  0
 17 35  1  0  0  0
M  END
$$$$
