5tzo_ligand
  -I-interpret- 

 54 56  0  0  0  0  0  0  0  0999 V2000
  -30.2360    7.8030  -16.1040 C   0  0  0  0  0
  -32.5660    7.0470  -17.7210 C   0  0  0  0  0
  -33.2280    6.7190  -20.1140 C   0  0  0  0  0
  -35.5490    6.5030  -20.7300 C   0  0  0  0  0
  -28.1940    9.6810  -12.7730 C   0  0  0  0  0
  -27.6040    8.5490  -12.2000 C   0  0  0  0  0
  -27.9420    8.1670  -10.8910 C   0  0  0  0  0
  -29.4250   10.0230  -10.7100 C   0  0  0  0  0
  -26.7670   10.9030  -14.3820 C   0  0  0  0  0
  -25.8540   11.3680  -13.2760 C   0  0  0  0  0
  -25.2110   12.6970  -13.6490 C   0  0  0  0  0
  -28.8060    9.6470  -15.1950 C   0  0  0  0  0
  -29.9970   10.5860  -15.3590 C   0  0  0  0  0
  -30.8980   10.1860  -16.5040 C   0  0  0  0  0
  -29.3700    8.2280  -14.9420 C   0  0  0  0  0
  -31.9300    8.4330  -17.8040 C   0  0  0  0  0
  -33.5970    6.8530  -18.7750 C   0  0  0  0  0
  -34.2060    6.5430  -21.0880 C   0  0  0  0  0
  -35.9140    6.6390  -19.3970 C   0  0  0  0  0
  -34.9390    6.8150  -18.4210 C   0  0  0  0  0
  -28.8490    8.9000  -10.1380 C   0  0  0  0  0
  -29.1040   10.4000  -12.0100 C   0  0  0  0  0
  -27.8790   10.0970  -14.1140 N   0  0  0  0  0
  -31.3390    8.7640  -16.4540 N   0  3  0  0  0
  -26.4860   11.2570  -15.5210 O   0  0  0  0  0
  -30.7125    6.8656  -15.8171 H   0  0  0  0  0
  -29.5853    7.7373  -16.9760 H   0  0  0  0  0
  -33.0459    6.9463  -16.7475 H   0  0  0  0  0
  -31.7843    6.3007  -17.8627 H   0  0  0  0  0
  -32.1757    6.7521  -20.3964 H   0  0  0  0  0
  -36.3139    6.3652  -21.4942 H   0  0  0  0  0
  -26.8821    7.9635  -12.7693 H   0  0  0  0  0
  -27.4832    7.2779  -10.4583 H   0  0  0  0  0
  -30.1364   10.6166  -10.1359 H   0  0  0  0  0
  -25.0723   10.6241  -13.1221 H   0  0  0  0  0
  -26.4359   11.4968  -12.3633 H   0  0  0  0  0
  -24.6309   12.5745  -14.5636 H   0  0  0  0  0
  -25.9890   13.4437  -13.8080 H   0  0  0  0  0
  -24.5544   13.0208  -12.8414 H   0  0  0  0  0
  -28.1977    9.6469  -16.0995 H   0  0  0  0  0
  -29.6114   11.5839  -15.5681 H   0  0  0  0  0
  -30.5836   10.5477  -14.4411 H   0  0  0  0  0
  -30.3307   10.3180  -17.4253 H   0  0  0  0  0
  -31.7926   10.8059  -16.4453 H   0  0  0  0  0
  -28.5426    7.5265  -14.8354 H   0  0  0  0  0
  -29.9696    8.2370  -14.0318 H   0  0  0  0  0
  -32.6818    9.1741  -18.0753 H   0  0  0  0  0
  -31.1508    8.4422  -18.5661 H   0  0  0  0  0
  -33.9187    6.4362  -22.1340 H   0  0  0  0  0
  -36.9665    6.6077  -19.1152 H   0  0  0  0  0
  -35.2290    6.9233  -17.3759 H   0  0  0  0  0
  -29.1020    8.5994   -9.1213 H   0  0  0  0  0
  -29.5788   11.2818  -12.4402 H   0  0  0  0  0
  -32.0254    8.6601  -15.7067 H   0  0  0  0  0
  1 15  1  0  0  0
 24  1  1  0  0  0
 16  2  1  0  0  0
  2 17  1  0  0  0
 17  3  4  0  0  0
  3 18  4  0  0  0
 18  4  4  0  0  0
  4 19  4  0  0  0
  5  6  4  0  0  0
  5 22  4  0  0  0
 23  5  1  0  0  0
  6  7  4  0  0  0
  7 21  4  0  0  0
  8 21  4  0  0  0
 22  8  4  0  0  0
  9 10  1  0  0  0
 23  9  1  0  0  0
  9 25  2  0  0  0
 10 11  1  0  0  0
 13 12  1  0  0  0
 15 12  1  0  0  0
 12 23  1  0  0  0
 14 13  1  0  0  0
 24 14  1  0  0  0
 16 24  1  0  0  0
 17 20  4  0  0  0
 19 20  4  0  0  0
  1 26  1  0  0  0
  1 27  1  0  0  0
  2 28  1  0  0  0
  2 29  1  0  0  0
  3 30  1  0  0  0
  4 31  1  0  0  0
  6 32  1  0  0  0
  7 33  1  0  0  0
  8 34  1  0  0  0
 10 35  1  0  0  0
 10 36  1  0  0  0
 11 37  1  0  0  0
 11 38  1  0  0  0
 11 39  1  0  0  0
 12 40  1  0  0  0
 13 41  1  0  0  0
 13 42  1  0  0  0
 14 43  1  0  0  0
 14 44  1  0  0  0
 15 45  1  0  0  0
 15 46  1  0  0  0
 16 47  1  0  0  0
 16 48  1  0  0  0
 18 49  1  0  0  0
 19 50  1  0  0  0
 20 51  1  0  0  0
 21 52  1  0  0  0
 22 53  1  0  0  0
 24 54  1  0  0  0
M  END
$$$$
