6grp_ligand
  -I-interpret- 

 12 12  0  0  0  0  0  0  0  0999 V2000
    0.6180   -0.5680  -23.2480 C   0  0  0  0  0
    1.1230   -0.5410  -21.9980 C   0  0  0  0  0
    0.3380   -0.1960  -20.8480 C   0  0  0  0  0
    0.7390   -0.1600  -19.6930 O   0  0  0  0  0
   -0.9500    0.0930  -21.1310 N   0  0  0  0  0
   -1.4410    0.0550  -22.3560 C   0  0  0  0  0
   -0.7380   -0.2570  -23.4510 C   0  0  0  0  0
   -1.4260   -0.2870  -25.0290 Cl  0  0  0  0  0
   -3.1040    0.4500  -22.4960 Cl  0  0  0  0  0
    2.8020   -0.9120  -21.7260 Cl  0  0  0  0  0
    1.2551   -0.8285  -24.0932 H   0  0  0  0  0
   -1.4439   -0.1593  -24.2758 H   0  0  0  0  0
  1  2  2  0  0  0
  1  7  1  0  0  0
  2  3  1  0  0  0
  2 10  1  0  0  0
  3  4  2  0  0  0
  3  5  1  0  0  0
  5  6  2  0  0  0
  6  7  1  0  0  0
  6  9  1  0  0  0
  7  8  1  0  0  0
  1 11  1  0  0  0
  7 12  1  0  0  0
M  END
$$$$
