3cbs_ligand
  -I-interpret- 

 47 47  0  0  0  0  0  0  0  0999 V2000
   15.5890   -7.1790   23.5720 C   0  0  0  0  0
   15.4840   -5.8180   23.4830 C   0  0  0  0  0
   16.5070   -5.0470   22.9230 C   0  0  0  0  0
   17.6720   -5.7000   22.4500 C   0  0  0  0  0
   17.7860   -7.1090   22.5390 C   0  0  0  0  0
   16.7270   -7.8640   23.1130 C   0  0  0  0  0
   18.7790   -4.9130   21.8530 C   0  0  0  0  0
   18.6960   -4.0740   20.8240 C   0  0  0  0  0
   19.7380   -3.2840   20.2720 C   0  0  0  0  0
   19.3800   -2.3710   19.3620 C   0  0  0  0  0
   20.2460   -1.5690   18.5690 C   0  0  0  0  0
   19.7930   -0.6850   17.6860 C   0  0  0  0  0
   20.5770    0.1430   16.8490 C   0  0  0  0  0
   19.9240    1.0370   15.9520 C   0  0  0  0  0
   20.4470    1.9820   14.9870 C   0  0  0  0  0
   22.0680    0.0670   16.9040 C   0  0  0  0  0
   21.1720   -3.4860   20.7020 C   0  0  0  0  0
   19.0290   -7.8050   22.0300 C   0  0  0  0  0
   16.3180   -3.5520   22.8600 C   0  0  0  0  0
   14.6070   -7.9540   24.1150 O   0  0  0  0  0
   19.9370    2.1350   13.9050 O   0  0  0  0  0
   21.5170    2.6500   15.3770 O   0  0  0  0  0
   14.2275   -5.1288   24.0044 C   0  0  0  0  0
   16.7961   -8.9487   23.1952 H   0  0  0  0  0
   19.7634   -5.0351   22.3049 H   0  0  0  0  0
   17.7179   -3.9830   20.3517 H   0  0  0  0  0
   18.3100   -2.2264   19.2125 H   0  0  0  0  0
   21.3232   -1.6837   18.6900 H   0  0  0  0  0
   18.7108   -0.5886   17.5982 H   0  0  0  0  0
   18.8356    1.0038   16.0008 H   0  0  0  0  0
   22.4519   -0.2254   15.9266 H   0  0  0  0  0
   22.4704    1.0425   17.1769 H   0  0  0  0  0
   22.3657   -0.6714   17.6485 H   0  0  0  0  0
   21.7737   -3.7639   19.8367 H   0  0  0  0  0
   21.5554   -2.5600   21.1305 H   0  0  0  0  0
   21.2179   -4.2794   21.4480 H   0  0  0  0  0
   19.1497   -7.5986   20.9665 H   0  0  0  0  0
   19.8987   -7.4365   22.5739 H   0  0  0  0  0
   18.9310   -8.8796   22.1840 H   0  0  0  0  0
   15.4339   -3.3236   22.2647 H   0  0  0  0  0
   16.1892   -3.1605   23.8691 H   0  0  0  0  0
   17.1947   -3.0953   22.4008 H   0  0  0  0  0
   13.8786   -7.3953   24.3959 H   0  0  0  0  0
   21.7564    2.3778   16.2659 H   0  0  0  0  0
   13.3584   -5.5029   23.4633 H   0  0  0  0  0
   14.1136   -5.3397   25.0677 H   0  0  0  0  0
   14.3156   -4.0529   23.8535 H   0  0  0  0  0
  1 20  1  0  0  0
  1  6  4  0  0  0
  1  2  4  0  0  0
  2  3  4  0  0  0
  3 19  1  0  0  0
  3  4  4  0  0  0
  4  7  1  0  0  0
  4  5  4  0  0  0
  5 18  1  0  0  0
  5  6  4  0  0  0
  7  8  2  0  0  0
  8  9  1  0  0  0
  9 17  1  0  0  0
  9 10  2  0  0  0
 10 11  1  0  0  0
 11 12  2  0  0  0
 12 13  1  0  0  0
 13 16  1  0  0  0
 13 14  2  0  0  0
 14 15  1  0  0  0
 15 22  1  0  0  0
 15 21  2  0  0  0
  2 23  1  0  0  0
  6 24  1  0  0  0
  7 25  1  0  0  0
  8 26  1  0  0  0
 10 27  1  0  0  0
 11 28  1  0  0  0
 12 29  1  0  0  0
 14 30  1  0  0  0
 16 31  1  0  0  0
 16 32  1  0  0  0
 16 33  1  0  0  0
 17 34  1  0  0  0
 17 35  1  0  0  0
 17 36  1  0  0  0
 18 37  1  0  0  0
 18 38  1  0  0  0
 18 39  1  0  0  0
 19 40  1  0  0  0
 19 41  1  0  0  0
 19 42  1  0  0  0
 20 43  1  0  0  0
 22 44  1  0  0  0
 23 45  1  0  0  0
 23 46  1  0  0  0
 23 47  1  0  0  0
M  END
$$$$
