5o8t_ligand
  -I-interpret- 

 48 54  0  0  0  0  0  0  0  0999 V2000
   12.1220    4.0250  -29.1670 C   0  0  0  0  0
   10.8920    3.6510  -29.9770 C   0  0  0  0  0
    9.7480    4.6020  -29.5970 C   0  0  0  0  0
   10.1370    5.9850  -30.1480 C   0  0  0  0  0
   11.4540    6.5110  -29.5770 C   0  0  0  0  0
   11.9840    7.4680  -30.5820 N   0  0  0  0  0
   13.1350    6.9080  -31.2040 C   0  0  0  0  0
   13.8870    7.3950  -32.2680 C   0  0  0  0  0
   15.0070    6.6820  -32.6700 C   0  0  0  0  0
   15.3540    5.4970  -32.0440 C   0  0  0  0  0
   14.5980    5.0130  -30.9910 C   0  0  0  0  0
   13.4910    5.7300  -30.5590 C   0  0  0  0  0
   12.6040    5.4840  -29.3710 C   0  0  0  0  0
   13.3300    5.7450  -28.0440 C   0  0  0  0  0
   12.3950    5.1000  -27.0360 C   0  0  0  0  0
   11.8770    3.8880  -27.7030 N   0  3  0  0  0
   10.4700    3.6220  -27.3750 C   0  0  0  0  0
    9.5320    4.5550  -28.0960 C   0  0  0  0  0
    8.6360    5.3040  -27.4770 C   0  0  0  0  0
    7.7970    6.3050  -28.2080 C   0  0  0  0  0
    8.6050    7.3650  -28.7530 O   0  0  0  0  0
    9.1170    7.1220  -30.0660 C   0  0  0  0  0
    9.7630    8.4450  -30.4840 C   0  0  0  0  0
   11.1170    8.3660  -31.1440 C   0  0  0  0  0
   11.4030    9.0400  -32.1190 O   0  0  0  0  0
   12.8819    3.3335  -29.5309 H   0  0  0  0  0
   10.6055    2.6213  -29.7630 H   0  0  0  0  0
   11.1083    3.7373  -31.0418 H   0  0  0  0  0
    8.7866    4.3228  -30.0282 H   0  0  0  0  0
   10.2153    5.7311  -31.2051 H   0  0  0  0  0
   11.2016    6.8983  -28.5899 H   0  0  0  0  0
   13.6024    8.3170  -32.7750 H   0  0  0  0  0
   15.6208    7.0591  -33.4880 H   0  0  0  0  0
   16.2285    4.9416  -32.3829 H   0  0  0  0  0
   14.8697    4.0761  -30.5047 H   0  0  0  0  0
   13.5069    6.8031  -27.8511 H   0  0  0  0  0
   14.3397    5.3352  -28.0180 H   0  0  0  0  0
   11.5887    5.7747  -26.7483 H   0  0  0  0  0
   12.9124    4.8566  -26.1080 H   0  0  0  0  0
   12.3741    3.0669  -27.3580 H   0  0  0  0  0
   10.3377    3.7693  -26.3031 H   0  0  0  0  0
   10.2369    2.6024  -27.6819 H   0  0  0  0  0
    8.5040    5.1892  -26.4011 H   0  0  0  0  0
    7.0830    6.7377  -27.5072 H   0  0  0  0  0
    7.2884    5.7989  -29.0285 H   0  0  0  0  0
    8.3076    6.7997  -30.7210 H   0  0  0  0  0
    9.9129    9.0077  -29.5626 H   0  0  0  0  0
    9.0947    8.8816  -31.2262 H   0  0  0  0  0
  1  2  1  0  0  0
  1 13  1  0  0  0
  1 16  1  0  0  0
  2  3  1  0  0  0
  3  4  1  0  0  0
  3 18  1  0  0  0
  4  5  1  0  0  0
  4 22  1  0  0  0
  5  6  1  0  0  0
  5 13  1  0  0  0
  6  7  1  0  0  0
  6 24  1  0  0  0
  7  8  4  0  0  0
  7 12  4  0  0  0
  8  9  4  0  0  0
  9 10  4  0  0  0
 10 11  4  0  0  0
 11 12  4  0  0  0
 12 13  1  0  0  0
 13 14  1  0  0  0
 14 15  1  0  0  0
 15 16  1  0  0  0
 16 17  1  0  0  0
 17 18  1  0  0  0
 18 19  2  0  0  0
 19 20  1  0  0  0
 20 21  1  0  0  0
 21 22  1  0  0  0
 22 23  1  0  0  0
 23 24  1  0  0  0
 24 25  2  0  0  0
  1 26  1  0  0  0
  2 27  1  0  0  0
  2 28  1  0  0  0
  3 29  1  0  0  0
  4 30  1  0  0  0
  5 31  1  0  0  0
  8 32  1  0  0  0
  9 33  1  0  0  0
 10 34  1  0  0  0
 11 35  1  0  0  0
 14 36  1  0  0  0
 14 37  1  0  0  0
 15 38  1  0  0  0
 15 39  1  0  0  0
 16 40  1  0  0  0
 17 41  1  0  0  0
 17 42  1  0  0  0
 19 43  1  0  0  0
 20 44  1  0  0  0
 20 45  1  0  0  0
 22 46  1  0  0  0
 23 47  1  0  0  0
 23 48  1  0  0  0
M  END
$$$$
