5ut6_ligand
  -I-interpret- 

 36 38  0  0  0  0  0  0  0  0999 V2000
  -28.9820   16.5900   75.7200 C   0  0  0  0  0
  -29.3040   14.4610   76.8000 C   0  0  0  0  0
  -29.5650   12.2770   77.6190 C   0  0  0  0  0
  -27.4290   11.6310   77.5570 C   0  0  0  0  0
  -34.7110   16.1310   76.9900 C   0  0  0  0  0
  -36.9200   13.8150   78.9540 C   0  0  0  0  0
  -35.6620   14.4450   78.3780 C   0  0  0  0  0
  -34.4180   13.9280   78.6820 C   0  0  0  0  0
  -33.2900   14.5250   78.1330 C   0  0  0  0  0
  -33.4650   15.6240   77.2920 C   0  0  0  0  0
  -31.0160   15.9450   76.5310 C   0  0  0  0  0
  -28.4750   15.3600   76.1580 C   0  0  0  0  0
  -28.7020   11.2190   77.8750 C   0  0  0  0  0
  -26.1630   10.7830   77.6700 C   0  0  0  0  0
  -35.8200   15.5270   77.5390 C   0  0  0  0  0
  -37.8710   13.3680   79.3630 N   0  0  0  0  0
  -32.3680   16.3430   76.6900 N   0  0  0  0  0
  -30.2480   16.8600   75.9170 N   0  0  0  0  0
  -28.1050   17.5270   75.0400 N   0  0  0  0  0
  -28.8270   13.2800   77.1950 N   0  0  0  0  0
  -27.5140   12.8970   77.1320 N   0  0  0  0  0
  -30.5670   14.7970   76.9530 N   0  0  0  0  0
  -25.5200   10.8700   76.4200 O   0  0  0  0  0
  -30.6476   12.2762   77.7454 H   0  0  0  0  0
  -34.8161   16.9922   76.3302 H   0  0  0  0  0
  -34.3227   13.0657   79.3419 H   0  0  0  0  0
  -32.2929   14.1440   78.3540 H   0  0  0  0  0
  -27.4265   15.1124   75.9922 H   0  0  0  0  0
  -28.9833   10.2384   78.2590 H   0  0  0  0  0
  -26.4030    9.7490   77.9177 H   0  0  0  0  0
  -25.5175   11.1447   78.4704 H   0  0  0  0  0
  -36.8176   15.9026   77.3113 H   0  0  0  0  0
  -32.5975   17.2684   76.3276 H   0  0  0  0  0
  -27.1258   17.2877   74.8838 H   0  0  0  0  0
  -28.4683   18.4243   74.7187 H   0  0  0  0  0
  -24.7131   10.3503   76.4396 H   0  0  0  0  0
  1 12  4  0  0  0
 18  1  4  0  0  0
  1 19  1  0  0  0
 12  2  4  0  0  0
  2 20  1  0  0  0
  2 22  4  0  0  0
  3 13  4  0  0  0
 20  3  4  0  0  0
 13  4  4  0  0  0
  4 14  1  0  0  0
  4 21  4  0  0  0
 10  5  4  0  0  0
  5 15  4  0  0  0
  7  6  1  0  0  0
  6 16  3  0  0  0
  8  7  4  0  0  0
 15  7  4  0  0  0
  9  8  4  0  0  0
 10  9  4  0  0  0
 17 10  1  0  0  0
 11 17  1  0  0  0
 11 18  4  0  0  0
 11 22  4  0  0  0
 14 23  1  0  0  0
 20 21  4  0  0  0
  3 24  1  0  0  0
  5 25  1  0  0  0
  8 26  1  0  0  0
  9 27  1  0  0  0
 12 28  1  0  0  0
 13 29  1  0  0  0
 14 30  1  0  0  0
 14 31  1  0  0  0
 15 32  1  0  0  0
 17 33  1  0  0  0
 19 34  1  0  0  0
 19 35  1  0  0  0
 23 36  1  0  0  0
M  END
$$$$
