6njj_ligand
  -I-interpret- 

 43 45  0  0  0  0  0  0  0  0999 V2000
    5.4510  -13.1970   47.5310 C   0  0  0  0  0
    5.7140  -13.4110   49.0260 C   0  0  0  0  0
    6.9930  -13.1490   49.5520 C   0  0  0  0  0
    7.2440  -13.3740   50.9030 C   0  0  0  0  0
    8.6050  -13.1370   51.4790 C   0  0  0  0  0
    3.9690  -12.9110   47.2420 C   0  0  0  0  0
    1.2860  -12.3030   46.8210 C   0  0  0  0  0
    1.7440  -13.6230   46.6450 C   0  0  0  0  0
    3.5040  -11.6170   47.4380 C   0  0  0  0  0
    3.0700  -13.9290   46.8430 C   0  0  0  0  0
    2.1670  -11.3210   47.2050 C   0  0  0  0  0
    0.0180  -12.2760   44.2260 O   0  0  0  0  0
    5.0510  -14.0570   51.2540 C   0  0  0  0  0
    4.0580  -14.5620   52.2110 C   0  0  0  0  0
   -0.1780  -11.9220   46.6070 C   0  0  0  0  0
    3.8570  -13.8690   53.3830 C   0  0  0  0  0
    2.9270  -14.3190   54.2950 C   0  0  0  0  0
    2.4910  -16.2030   52.9490 C   0  0  0  0  0
    4.7250  -13.8880   49.8800 C   0  0  0  0  0
    2.2670  -15.5040   54.0740 C   0  0  0  0  0
    3.3790  -15.7400   51.9820 C   0  0  0  0  0
   -0.7210  -12.2410   45.2210 C   0  0  0  0  0
   -2.0490  -12.5030   45.0550 O   0  0  0  0  0
    6.2750  -13.8180   51.7170 N   0  0  0  0  0
    9.1090  -12.1030   50.8830 F   0  0  0  0  0
    8.5950  -12.9570   52.7790 F   0  0  0  0  0
    9.3080  -14.2020   51.2740 F   0  0  0  0  0
    1.5900  -17.6920   52.6850 Cl  0  0  0  0  0
    5.7317  -14.1077   47.0019 H   0  0  0  0  0
    6.0344  -12.3370   47.2021 H   0  0  0  0  0
    7.7841  -12.7714   48.9041 H   0  0  0  0  0
    1.0446  -14.4054   46.3506 H   0  0  0  0  0
    4.1863  -10.8360   47.7737 H   0  0  0  0  0
    3.4263  -14.9483   46.6937 H   0  0  0  0  0
    1.8126  -10.2976   47.3282 H   0  0  0  0  0
   -0.2470  -10.8417   46.7344 H   0  0  0  0  0
   -0.7647  -12.5021   47.3193 H   0  0  0  0  0
    4.4321  -12.9663   53.5894 H   0  0  0  0  0
    2.7151  -13.7355   55.1909 H   0  0  0  0  0
    3.7288  -14.1254   49.5069 H   0  0  0  0  0
    1.5594  -15.8779   54.8140 H   0  0  0  0  0
    3.5349  -16.2992   51.0595 H   0  0  0  0  0
   -2.4947  -12.4407   45.9030 H   0  0  0  0  0
  1  2  1  0  0  0
  6  1  1  0  0  0
  2  3  4  0  0  0
  2 19  4  0  0  0
  3  4  4  0  0  0
  4  5  1  0  0  0
  4 24  4  0  0  0
  5 25  1  0  0  0
  5 26  1  0  0  0
  5 27  1  0  0  0
  9  6  4  0  0  0
 10  6  4  0  0  0
  7  8  4  0  0  0
  7 11  4  0  0  0
 15  7  1  0  0  0
  8 10  4  0  0  0
 11  9  4  0  0  0
 22 12  2  0  0  0
 13 14  1  0  0  0
 19 13  4  0  0  0
 13 24  4  0  0  0
 14 16  4  0  0  0
 14 21  4  0  0  0
 15 22  1  0  0  0
 16 17  4  0  0  0
 17 20  4  0  0  0
 20 18  4  0  0  0
 18 21  4  0  0  0
 18 28  1  0  0  0
 22 23  1  0  0  0
  1 29  1  0  0  0
  1 30  1  0  0  0
  3 31  1  0  0  0
  8 32  1  0  0  0
  9 33  1  0  0  0
 10 34  1  0  0  0
 11 35  1  0  0  0
 15 36  1  0  0  0
 15 37  1  0  0  0
 16 38  1  0  0  0
 17 39  1  0  0  0
 19 40  1  0  0  0
 20 41  1  0  0  0
 21 42  1  0  0  0
 23 43  1  0  0  0
M  END
$$$$
