6j5l_ligand
  -I-interpret- 

 61 65  0  0  0  0  0  0  0  0999 V2000
  -19.2220  -17.7660  -27.6320 C   0  0  0  0  0
  -19.1750  -17.3920  -29.0290 C   0  0  0  0  0
  -19.3050  -15.9460  -29.0550 N   0  3  0  0  0
  -17.9840  -15.4460  -28.5470 C   0  0  0  0  0
  -17.8610  -15.7640  -27.0850 C   0  0  0  0  0
  -18.1160  -17.2000  -26.8310 N   0  0  0  0  0
  -17.5740  -17.8770  -25.7710 C   0  0  0  0  0
  -17.3250  -17.1660  -24.5980 C   0  0  0  0  0
  -16.8100  -17.7660  -23.4620 C   0  0  0  0  0
  -17.3200  -19.2020  -25.7510 N   0  0  0  0  0
  -16.8420  -19.8320  -24.5910 C   0  0  0  0  0
  -16.5350  -19.1090  -23.4300 C   0  0  0  0  0
  -16.0680  -19.7170  -22.2980 C   0  0  0  0  0
  -15.7710  -19.1950  -21.0880 C   0  0  0  0  0
  -15.7560  -17.9470  -20.6290 C   0  0  0  0  0
  -15.8950  -21.0250  -22.2170 N   0  0  0  0  0
  -15.4530  -21.3200  -20.9980 N   0  0  0  0  0
  -15.3780  -20.1960  -20.2910 C   0  0  0  0  0
  -15.0020  -19.9960  -19.0130 C   0  0  0  0  0
  -14.9770  -18.7010  -18.4900 C   0  0  0  0  0
  -15.3640  -17.6590  -19.3270 C   0  0  0  0  0
  -15.3970  -16.3970  -18.9070 N   0  0  0  0  0
  -16.4890  -15.9130  -18.0630 C   0  0  0  0  0
  -17.7190  -15.7830  -18.7300 C   0  0  0  0  0
  -18.8220  -16.3440  -18.0890 C   0  0  0  0  0
  -20.1140  -16.2790  -18.6040 C   0  0  0  0  0
  -20.2870  -15.6140  -19.7890 C   0  0  0  0  0
  -19.2180  -15.0210  -20.4430 C   0  0  0  0  0
  -17.9380  -15.0910  -19.9300 C   0  0  0  0  0
  -16.8940  -14.5600  -20.5990 N   0  0  0  0  0
  -16.9030  -12.9540  -21.0500 S   0  0  0  0  0
  -15.8900  -12.7360  -22.1410 O   0  0  0  0  0
  -18.2750  -12.4700  -21.5210 O   0  0  0  0  0
  -16.4950  -12.0370  -19.5960 C   0  0  0  0  0
  -19.1403  -18.8517  -27.5812 H   0  0  0  0  0
  -20.1546  -17.3793  -27.2211 H   0  0  0  0  0
  -19.9727  -17.8724  -29.5955 H   0  0  0  0  0
  -18.2443  -17.7153  -29.4953 H   0  0  0  0  0
  -20.0845  -15.6201  -28.4836 H   0  0  0  0  0
  -19.5144  -15.5959  -29.9899 H   0  0  0  0  0
  -17.9223  -14.3674  -28.6919 H   0  0  0  0  0
  -17.1757  -15.9306  -29.0947 H   0  0  0  0  0
  -18.5965  -15.1759  -26.5362 H   0  0  0  0  0
  -16.8484  -15.5257  -26.7593 H   0  0  0  0  0
  -17.5439  -16.0985  -24.5746 H   0  0  0  0  0
  -16.6195  -17.1597  -22.5764 H   0  0  0  0  0
  -16.7058  -20.9135  -24.5932 H   0  0  0  0  0
  -16.0575  -17.1327  -21.2878 H   0  0  0  0  0
  -14.7179  -20.8429  -18.3884 H   0  0  0  0  0
  -14.6653  -18.5134  -17.4625 H   0  0  0  0  0
  -14.6497  -15.7576  -19.1776 H   0  0  0  0  0
  -16.2077  -14.9204  -17.7112 H   0  0  0  0  0
  -16.6301  -16.6457  -17.2684 H   0  0  0  0  0
  -18.6660  -16.8576  -17.1403 H   0  0  0  0  0
  -20.9546  -16.7391  -18.0847 H   0  0  0  0  0
  -21.2836  -15.5499  -20.2259 H   0  0  0  0  0
  -19.3911  -14.4900  -21.3790 H   0  0  0  0  0
  -16.0919  -15.1457  -20.8312 H   0  0  0  0  0
  -15.5186  -12.3544  -19.2298 H   0  0  0  0  0
  -16.4670  -10.9738  -19.8345 H   0  0  0  0  0
  -17.2486  -12.2191  -18.8298 H   0  0  0  0  0
  1  2  1  0  0  0
  1  6  1  0  0  0
  2  3  1  0  0  0
  3  4  1  0  0  0
  4  5  1  0  0  0
  5  6  1  0  0  0
  6  7  1  0  0  0
  7  8  4  0  0  0
  7 10  4  0  0  0
  8  9  4  0  0  0
  9 12  4  0  0  0
 10 11  4  0  0  0
 11 12  4  0  0  0
 12 13  1  0  0  0
 13 14  4  0  0  0
 13 16  4  0  0  0
 14 15  4  0  0  0
 14 18  4  0  0  0
 15 21  4  0  0  0
 16 17  4  0  0  0
 17 18  4  0  0  0
 18 19  4  0  0  0
 19 20  4  0  0  0
 20 21  4  0  0  0
 21 22  1  0  0  0
 22 23  1  0  0  0
 23 24  1  0  0  0
 24 25  4  0  0  0
 24 29  4  0  0  0
 25 26  4  0  0  0
 26 27  4  0  0  0
 27 28  4  0  0  0
 28 29  4  0  0  0
 29 30  1  0  0  0
 30 31  1  0  0  0
 31 32  2  0  0  0
 31 33  2  0  0  0
 31 34  1  0  0  0
  1 35  1  0  0  0
  1 36  1  0  0  0
  2 37  1  0  0  0
  2 38  1  0  0  0
  3 39  1  0  0  0
  3 40  1  0  0  0
  4 41  1  0  0  0
  4 42  1  0  0  0
  5 43  1  0  0  0
  5 44  1  0  0  0
  8 45  1  0  0  0
  9 46  1  0  0  0
 11 47  1  0  0  0
 15 48  1  0  0  0
 19 49  1  0  0  0
 20 50  1  0  0  0
 22 51  1  0  0  0
 23 52  1  0  0  0
 23 53  1  0  0  0
 25 54  1  0  0  0
 26 55  1  0  0  0
 27 56  1  0  0  0
 28 57  1  0  0  0
 30 58  1  0  0  0
 34 59  1  0  0  0
 34 60  1  0  0  0
 34 61  1  0  0  0
M  END
$$$$
