1lhu_ligand
  -I-interpret- 

 44 47  0  0  0  0  0  0  0  0999 V2000
   20.8340    8.7500   33.1660 C   0  0  0  0  0
   19.5420    8.2930   33.2950 C   0  0  0  0  0
   18.4990    9.1910   33.5750 C   0  0  0  0  0
   17.2330    8.6960   33.6900 O   0  0  0  0  0
   18.8040   10.5710   33.7190 C   0  0  0  0  0
   20.1150   11.0470   33.5880 C   0  0  0  0  0
   20.3720   12.5580   33.7540 C   0  0  0  0  0
   21.8630   12.9870   33.6970 C   0  0  0  0  0
   22.6880   12.1520   32.7090 C   0  0  0  0  0
   22.6420   10.6140   33.1440 C   0  0  0  0  0
   21.1850   10.1210   33.2980 C   0  0  0  0  0
   23.4760    9.7400   32.1680 C   0  0  0  0  0
   24.9130   10.2600   32.0010 C   0  0  0  0  0
   24.9570   11.7460   31.5500 C   0  0  0  0  0
   24.1760   12.5870   32.6000 C   0  0  0  0  0
   24.4940   14.0470   32.2090 C   0  0  0  0  0
   25.9340   13.9470   31.6090 C   0  0  0  0  0
   26.3000   12.4550   31.6550 C   0  0  0  0  0
   27.1830   12.1630   30.5530 O   0  0  0  0  0
   24.3800   11.8400   30.1030 C   0  0  0  0  0
   21.6229    8.0285   32.9532 H   0  0  0  0  0
   19.3276    7.2306   33.1795 H   0  0  0  0  0
   16.6257    9.4146   33.8808 H   0  0  0  0  0
   18.0005   11.2748   33.9361 H   0  0  0  0  0
   20.0064   12.8300   34.7442 H   0  0  0  0  0
   19.8725   13.0531   32.9212 H   0  0  0  0  0
   22.2886   12.8436   34.6902 H   0  0  0  0  0
   21.8981   14.0248   33.3657 H   0  0  0  0  0
   22.2356   12.3114   31.7302 H   0  0  0  0  0
   23.1041   10.5157   34.1263 H   0  0  0  0  0
   22.9913    9.7668   31.1921 H   0  0  0  0  0
   23.5271    8.7311   32.5774 H   0  0  0  0  0
   25.4014    9.6601   31.2331 H   0  0  0  0  0
   25.4126   10.1860   32.9669 H   0  0  0  0  0
   24.4774   12.4363   33.6366 H   0  0  0  0  0
   24.4363   14.7321   33.0548 H   0  0  0  0  0
   23.7720   14.4619   31.5056 H   0  0  0  0  0
   26.6441   14.5485   32.1765 H   0  0  0  0  0
   25.9684   14.3339   30.5906 H   0  0  0  0  0
   26.8293   12.1398   32.5542 H   0  0  0  0  0
   28.0100   12.6355   30.6732 H   0  0  0  0  0
   24.9834   11.2284   29.4322 H   0  0  0  0  0
   23.3515   11.4792   30.0992 H   0  0  0  0  0
   24.4036   12.8778   29.7705 H   0  0  0  0  0
  1  2  4  0  0  0
  1 11  4  0  0  0
  2  3  4  0  0  0
  3  4  1  0  0  0
  3  5  4  0  0  0
  5  6  4  0  0  0
  6  7  1  0  0  0
  6 11  4  0  0  0
  7  8  1  0  0  0
  8  9  1  0  0  0
  9 10  1  0  0  0
  9 15  1  0  0  0
 10 11  1  0  0  0
 10 12  1  0  0  0
 12 13  1  0  0  0
 13 14  1  0  0  0
 14 15  1  0  0  0
 14 18  1  0  0  0
 14 20  1  0  0  0
 15 16  1  0  0  0
 16 17  1  0  0  0
 17 18  1  0  0  0
 18 19  1  0  0  0
  1 21  1  0  0  0
  2 22  1  0  0  0
  4 23  1  0  0  0
  5 24  1  0  0  0
  7 25  1  0  0  0
  7 26  1  0  0  0
  8 27  1  0  0  0
  8 28  1  0  0  0
  9 29  1  0  0  0
 10 30  1  0  0  0
 12 31  1  0  0  0
 12 32  1  0  0  0
 13 33  1  0  0  0
 13 34  1  0  0  0
 15 35  1  0  0  0
 16 36  1  0  0  0
 16 37  1  0  0  0
 17 38  1  0  0  0
 17 39  1  0  0  0
 18 40  1  0  0  0
 19 41  1  0  0  0
 20 42  1  0  0  0
 20 43  1  0  0  0
 20 44  1  0  0  0
M  END
$$$$
