1v2l_ligand
  -I-interpret- 

 17 17  0  0  0  0  0  0  0  0999 V2000
   53.2200   67.2620  -28.8870 C   0  0  0  0  0
   52.6250   66.8840  -30.1740 C   0  0  0  0  0
   52.3630   67.8910  -31.1900 C   0  0  0  0  0
   52.6930   69.2850  -30.9340 C   0  0  0  0  0
   53.2790   69.6720  -29.6700 C   0  0  0  0  0
   53.5430   68.6670  -28.6480 C   0  0  0  0  0
   53.5010   66.2000  -27.8130 C   0  0  0  0  0
   54.2640   66.5030  -26.7770 N   0  0  0  0  0
   52.9870   64.9940  -27.9420 N   0  0  0  0  0
   52.3776   65.8407  -30.3700 H   0  0  0  0  0
   51.9196   67.6017  -32.1428 H   0  0  0  0  0
   52.4980   70.0390  -31.6966 H   0  0  0  0  0
   53.5237   70.7172  -29.4812 H   0  0  0  0  0
   53.9850   68.9658  -27.6975 H   0  0  0  0  0
   54.4610   65.7992  -26.0655 H   0  0  0  0  0
   54.6558   67.4406  -26.6891 H   0  0  0  0  0
   53.1762   64.2810  -27.2376 H   0  0  0  0  0
  1  2  4  0  0  0
  1  6  4  0  0  0
  1  7  1  0  0  0
  2  3  4  0  0  0
  3  4  4  0  0  0
  4  5  4  0  0  0
  5  6  4  0  0  0
  7  8  1  0  0  0
  7  9  2  0  0  0
  2 10  1  0  0  0
  3 11  1  0  0  0
  4 12  1  0  0  0
  5 13  1  0  0  0
  6 14  1  0  0  0
  8 15  1  0  0  0
  8 16  1  0  0  0
  9 17  1  0  0  0
M  END
$$$$
