4zqt_ligand
  -I-interpret- 

 43 43  0  0  0  0  0  0  0  0999 V2000
   10.9180   12.8170   11.9810 N   0  3  0  0  0
   12.4840   12.6460   13.8510 C   0  0  0  0  0
   11.8450   11.5140   15.8830 C   0  0  0  0  0
   13.6050   13.1500   15.9180 C   0  0  0  0  0
   17.1170    9.5810    8.5020 C   0  0  0  0  0
   16.2830    8.7970    9.4930 C   0  0  0  0  0
   15.7040    7.5870    8.7930 C   0  0  0  0  0
   15.1880    9.6270   10.1630 C   0  0  0  0  0
   15.6620   10.4010   11.3880 C   0  0  0  0  0
   14.5890   11.0250   12.2650 C   0  0  0  0  0
   13.1970   11.6960   11.3210 P   0  0  0  0  0
   12.2700   10.5000   10.8580 O   0  0  0  0  0
   13.6540   12.4270   10.1320 O   0  0  0  0  0
   12.2940   12.8880   12.3610 C   0  0  0  0  0
   11.6840   11.7250   14.5210 C   0  0  0  0  0
   12.8100   12.2220   16.5830 C   0  0  0  0  0
   13.4440   13.3550   14.5540 C   0  0  0  0  0
   16.5430    9.5640   12.2730 C   0  0  0  0  0
   17.7630    9.8250   12.2960 O   0  0  0  0  0
   16.0500    8.6360   12.9790 O   0  0  0  0  0
   10.3768   13.4733   12.5438 H   0  0  0  0  0
   10.8262   13.0575   10.9940 H   0  0  0  0  0
   10.5724   11.8697   12.1349 H   0  0  0  0  0
   11.2137   10.7927   16.4019 H   0  0  0  0  0
   14.3555   13.7172   16.4686 H   0  0  0  0  0
   17.9226    8.9496    8.1273 H   0  0  0  0  0
   16.4874    9.9001    7.6714 H   0  0  0  0  0
   17.5393   10.4558    8.9964 H   0  0  0  0  0
   16.9390    8.4846   10.3055 H   0  0  0  0  0
   15.1886    6.9600    9.5205 H   0  0  0  0  0
   14.9988    7.9138    8.0288 H   0  0  0  0  0
   16.5090    7.0186    8.3271 H   0  0  0  0  0
   14.4146    8.9349   10.4960 H   0  0  0  0  0
   14.8418   10.3575    9.4319 H   0  0  0  0  0
   16.2063   11.2271   10.9304 H   0  0  0  0  0
   15.0468   11.8504   12.8101 H   0  0  0  0  0
   14.1995   10.2432   12.9171 H   0  0  0  0  0
   11.9658   10.0155   11.6289 H   0  0  0  0  0
   12.6910   13.8896   12.1956 H   0  0  0  0  0
   10.9261   11.1659   13.9723 H   0  0  0  0  0
   12.9453   12.0520   17.6511 H   0  0  0  0  0
   14.0752   14.0763   14.0349 H   0  0  0  0  0
   15.1034    8.5881   12.8267 H   0  0  0  0  0
 14  1  1  0  0  0
 14  2  1  0  0  0
  2 15  4  0  0  0
  2 17  4  0  0  0
 15  3  4  0  0  0
  3 16  4  0  0  0
  4 16  4  0  0  0
 17  4  4  0  0  0
  6  5  1  0  0  0
  6  7  1  0  0  0
  8  6  1  0  0  0
  9  8  1  0  0  0
 10  9  1  0  0  0
  9 18  1  0  0  0
 11 10  1  0  0  0
 11 12  1  0  0  0
 11 13  2  0  0  0
 11 14  1  0  0  0
 18 19  2  0  0  0
 18 20  1  0  0  0
  1 21  1  0  0  0
  1 22  1  0  0  0
  1 23  1  0  0  0
  3 24  1  0  0  0
  4 25  1  0  0  0
  5 26  1  0  0  0
  5 27  1  0  0  0
  5 28  1  0  0  0
  6 29  1  0  0  0
  7 30  1  0  0  0
  7 31  1  0  0  0
  7 32  1  0  0  0
  8 33  1  0  0  0
  8 34  1  0  0  0
  9 35  1  0  0  0
 10 36  1  0  0  0
 10 37  1  0  0  0
 12 38  1  0  0  0
 14 39  1  0  0  0
 15 40  1  0  0  0
 16 41  1  0  0  0
 17 42  1  0  0  0
 20 43  1  0  0  0
M  END
$$$$
