### 
### Created by X-TOOL on Mon Sep 10 21:13:21 2018
### 

@<TRIPOS>MOLECULE
4zqt_ligand
   41    41     1     0     0
SMALL
GAST_HUCK


@<TRIPOS>ATOM
      1 N12        10.9180   12.8170   11.9810 N.4       1 4QP         0.2458
      2 C13        12.4840   12.6460   13.8510 C.ar      1 4QP         0.0223
      3 C15        11.8450   11.5140   15.8830 C.ar      1 4QP        -0.0683
      4 C17        13.6050   13.1500   15.9180 C.ar      1 4QP        -0.0683
      5 C02        17.1170    9.5810    8.5020 C.3       1 4QP        -0.0626
      6 C03        16.2830    8.7970    9.4930 C.3       1 4QP        -0.0449
      7 C04        15.7040    7.5870    8.7930 C.3       1 4QP        -0.0626
      8 C05        15.1880    9.6270   10.1630 C.3       1 4QP        -0.0348
      9 C06        15.6620   10.4010   11.3880 C.3       1 4QP         0.0282
     10 C07        14.5890   11.0250   12.2650 C.3       1 4QP         0.0348
     11 P08        13.1970   11.6960   11.3210 P.3       1 4QP         0.0495
     12 O09        12.2700   10.5000   10.8580 O.co2     1 4QP        -0.6140
     13 O10        13.6540   12.4270   10.1320 O.co2     1 4QP        -0.6140
     14 C11        12.2940   12.8880   12.3610 C.3       1 4QP         0.0705
     15 C14        11.6840   11.7250   14.5210 C.ar      1 4QP        -0.0533
     16 C16        12.8100   12.2220   16.5830 C.ar      1 4QP        -0.0687
     17 C18        13.4440   13.3550   14.5540 C.ar      1 4QP        -0.0533
     18 C19        16.5430    9.5640   12.2730 C.2       1 4QP         0.0394
     19 O20        17.7630    9.8250   12.2960 O.co2     1 4QP        -0.5687
     20 O21        16.0500    8.6360   12.9790 O.co2     1 4QP        -0.5687
     21 H1         10.3821   13.4652   12.5366 H         1 4QP         0.2027
     22 H2         10.5753   11.8813   12.1327 H         1 4QP         0.2027
     23 H3         10.8260   13.0545   11.0057 H         1 4QP         0.2027
     24 H4         11.2172   10.7966   16.3990 H         1 4QP         0.0599
     25 H5         14.3514   13.7140   16.4655 H         1 4QP         0.0599
     26 H6         17.8801    8.9218    8.0625 H         1 4QP         0.0232
     27 H7         17.6092   10.4183    9.0184 H         1 4QP         0.0232
     28 H8         16.4677    9.9725    7.7050 H         1 4QP         0.0232
     29 H9         16.9551    8.4431   10.2886 H         1 4QP         0.0297
     30 H10        15.0953    7.0087    9.5037 H         1 4QP         0.0232
     31 H11        16.5217    6.9569    8.4132 H         1 4QP         0.0232
     32 H12        15.0740    7.9157    7.9533 H         1 4QP         0.0232
     33 H13        14.3800    8.9483   10.4735 H         1 4QP         0.0289
     34 H14        14.7999   10.3468    9.4273 H         1 4QP         0.0289
     35 H15        16.2719   11.2302   11.0002 H         1 4QP         0.0482
     36 H16        15.0432   11.8412   12.8458 H         1 4QP         0.0489
     37 H17        14.2070   10.2550   12.9514 H         1 4QP         0.0489
     38 H18        12.6696   13.8978   12.1393 H         1 4QP         0.1232
     39 H19        10.9303   11.1689   13.9753 H         1 4QP         0.0559
     40 H20        12.9446   12.0529   17.6452 H         1 4QP         0.0559
     41 H21        14.0717   14.0723   14.0377 H         1 4QP         0.0559
@<TRIPOS>BOND
     1   14    1 1  
     2   14    2 1  
     3    2   15 ar 
     4    2   17 ar 
     5   15    3 ar 
     6    3   16 ar 
     7    4   16 ar 
     8   17    4 ar 
     9    6    5 1  
    10    6    7 1  
    11    8    6 1  
    12    9    8 1  
    13   10    9 1  
    14    9   18 1  
    15   11   10 1  
    16   11   12 ar 
    17   11   13 ar 
    18   11   14 1  
    19   18   19 ar 
    20   18   20 ar 
    21    1   21 1  
    22    1   22 1  
    23    1   23 1  
    24    3   24 1  
    25    4   25 1  
    26    5   26 1  
    27    5   27 1  
    28    5   28 1  
    29    6   29 1  
    30    7   30 1  
    31    7   31 1  
    32    7   32 1  
    33    8   33 1  
    34    8   34 1  
    35    9   35 1  
    36   10   36 1  
    37   10   37 1  
    38   14   38 1  
    39   15   39 1  
    40   16   40 1  
    41   17   41 1  
@<TRIPOS>SUBSTRUCTURE
     1 4QP         1

