5yic_ligand
  -I-interpret- 

 95 99  0  0  0  0  0  0  0  0999 V2000
  -24.5440   16.8000   -7.7550 C   0  0  0  0  0
  -25.1570   21.1210   -8.5170 C   0  0  0  0  0
  -25.5450   22.5350   -8.9350 C   0  0  0  0  0
  -25.2680   20.1300   -9.6730 C   0  0  0  0  0
  -24.8850   16.2610   -9.1250 C   0  0  0  0  0
  -21.8060   11.7870  -13.0100 C   0  0  0  0  0
  -22.3110   13.1090  -12.4620 C   0  0  0  0  0
  -23.1160   12.2590  -16.8150 C   0  0  0  0  0
  -22.7680   12.3610  -15.3900 C   0  0  0  0  0
  -27.3980   17.2770  -12.4540 C   0  0  0  0  0
  -26.6420   17.6060  -17.3330 C   0  0  0  0  0
  -26.5130   16.8950  -14.8090 C   0  0  0  0  0
  -27.0360   17.9880  -15.9000 C   0  0  0  0  0
  -23.9250   14.3640  -15.9490 C   0  0  0  0  0
  -26.2860   19.4430  -15.3860 S   0  0  0  0  0
  -27.3250   22.6350   -9.2710 S   0  0  0  0  0
  -25.4810   12.6770  -16.7550 O   0  0  0  0  0
  -24.1670   16.9850  -14.9590 O   0  0  0  0  0
  -28.6040   17.8700  -10.4620 O   0  0  0  0  0
  -27.8950   16.1950  -12.4440 O   0  0  0  0  0
  -24.7500   20.3190  -10.7330 O   0  0  0  0  0
  -24.0160   20.1900   -6.0440 O   0  0  0  0  0
  -26.6500   17.6820  -13.5980 N   0  0  0  0  0
  -25.1290   15.0250  -15.5520 N   0  0  0  0  0
  -26.0360   18.9310   -9.4270 N   0  0  0  0  0
  -23.7740   21.2380   -8.0680 N   0  0  0  0  0
  -19.1230   15.9820   -4.5380 N   0  0  0  0  0
  -25.9180   19.1380  -13.9620 C   0  0  0  0  0
  -25.1770   16.3680  -15.0700 C   0  0  0  0  0
  -24.2890   13.2640  -16.9950 C   0  0  0  0  0
  -28.5740   18.0880  -15.7210 C   0  0  0  0  0
  -23.2670   13.6530  -14.8530 C   0  0  0  0  0
  -27.4820   18.1770  -11.2430 C   0  0  0  0  0
  -26.1980   17.8990  -10.4330 C   0  0  0  0  0
  -23.0510   14.0450  -13.3890 C   0  0  0  0  0
  -22.0270   11.4050  -14.4560 C   0  0  0  0  0
  -26.2500   16.5360   -9.7140 C   0  0  0  0  0
  -23.8760   15.4620   -9.9150 C   0  0  0  0  0
  -23.1730   16.5450   -7.1620 C   0  0  0  0  0
  -22.5080   15.2010   -9.3130 C   0  0  0  0  0
  -22.1660   15.7490   -7.9430 C   0  0  0  0  0
  -23.2960   20.7530   -6.7920 C   0  0  0  0  0
  -21.8200   20.9820   -6.4260 C   0  0  0  0  0
  -28.1540   22.7300   -7.6700 C   0  0  0  0  0
  -21.1340   19.7080   -5.9560 C   0  0  0  0  0
  -20.0400   19.0790   -6.8100 C   0  0  0  0  0
  -21.5360   19.0880   -4.6280 C   0  0  0  0  0
  -19.3500   17.8040   -6.3410 C   0  0  0  0  0
  -20.8470   17.8260   -4.1530 C   0  0  0  0  0
  -19.7620   17.1840   -5.0100 C   0  0  0  0  0
  -25.2834   17.3716   -7.1940 H   0  0  0  0  0
  -25.8214   20.7374   -7.7427 H   0  0  0  0  0
  -24.9990   22.7980   -9.8410 H   0  0  0  0  0
  -25.2989   23.2227   -8.1260 H   0  0  0  0  0
  -21.2749   11.1012  -12.3499 H   0  0  0  0  0
  -22.1430   13.3783  -11.4192 H   0  0  0  0  0
  -23.3969   11.2445  -17.0979 H   0  0  0  0  0
  -22.2709   12.4934  -17.4623 H   0  0  0  0  0
  -26.9424   18.4012  -18.0153 H   0  0  0  0  0
  -25.5621   17.4678  -17.3870 H   0  0  0  0  0
  -27.1426   16.6786  -17.6111 H   0  0  0  0  0
  -27.0648   15.9551  -14.7944 H   0  0  0  0  0
  -23.2594   15.1392  -16.3287 H   0  0  0  0  0
  -26.1832   13.3208  -16.8738 H   0  0  0  0  0
  -28.6329   18.4551   -9.7014 H   0  0  0  0  0
  -26.0051   14.5067  -15.6169 H   0  0  0  0  0
  -26.4785   18.8064   -8.5164 H   0  0  0  0  0
  -23.1040   21.6888   -8.6912 H   0  0  0  0  0
  -18.3909   15.5412   -5.0949 H   0  0  0  0  0
  -19.4027   15.5719   -3.6470 H   0  0  0  0  0
  -26.2544   19.9275  -13.2899 H   0  0  0  0  0
  -24.8367   19.0776  -13.8383 H   0  0  0  0  0
  -24.3987   13.6585  -18.0052 H   0  0  0  0  0
  -28.8058   18.2583  -14.6696 H   0  0  0  0  0
  -28.9547   18.9172  -16.3173 H   0  0  0  0  0
  -29.0381   17.1585  -16.0507 H   0  0  0  0  0
  -27.5731   19.2223  -11.5381 H   0  0  0  0  0
  -25.3644   17.8904  -11.1352 H   0  0  0  0  0
  -23.4300   14.9967  -13.0164 H   0  0  0  0  0
  -21.6588   10.4502  -14.8314 H   0  0  0  0  0
  -27.0016   16.5568   -8.9249 H   0  0  0  0  0
  -26.5192   15.7499  -10.4195 H   0  0  0  0  0
  -24.1270   15.0782  -10.9038 H   0  0  0  0  0
  -22.9194   16.9359   -6.1766 H   0  0  0  0  0
  -21.7711   14.6190   -9.8665 H   0  0  0  0  0
  -21.1790   15.5640   -7.5192 H   0  0  0  0  0
  -21.7831   21.7050   -5.6111 H   0  0  0  0  0
  -21.3022   21.3341   -7.3182 H   0  0  0  0  0
  -27.9192   21.8393   -7.0873 H   0  0  0  0  0
  -27.8101   23.6160   -7.1362 H   0  0  0  0  0
  -29.2314   22.7919   -7.8233 H   0  0  0  0  0
  -19.7516   19.5402   -7.7546 H   0  0  0  0  0
  -22.3154   19.5489   -4.0212 H   0  0  0  0  0
  -18.5724   17.3413   -6.9487 H   0  0  0  0  0
  -21.1264   17.3773   -3.1997 H   0  0  0  0  0
  5  1  4  0  0  0
  1 39  4  0  0  0
  2  3  1  0  0  0
  2  4  1  0  0  0
 26  2  1  0  0  0
  3 16  1  0  0  0
  4 21  2  0  0  0
  4 25  1  0  0  0
 37  5  1  0  0  0
  5 38  4  0  0  0
  7  6  4  0  0  0
 36  6  4  0  0  0
 35  7  4  0  0  0
  9  8  1  0  0  0
 30  8  1  0  0  0
 32  9  4  0  0  0
  9 36  4  0  0  0
 10 20  2  0  0  0
 10 23  1  0  0  0
 33 10  1  0  0  0
 13 11  1  0  0  0
 12 13  1  0  0  0
 23 12  1  0  0  0
 12 29  1  0  0  0
 15 13  1  0  0  0
 13 31  1  0  0  0
 24 14  1  0  0  0
 14 30  1  0  0  0
 14 32  1  0  0  0
 28 15  1  0  0  0
 16 44  1  0  0  0
 30 17  1  0  0  0
 29 18  2  0  0  0
 33 19  1  0  0  0
 42 22  2  0  0  0
 23 28  1  0  0  0
 29 24  1  0  0  0
 25 34  1  0  0  0
 42 26  1  0  0  0
 50 27  1  0  0  0
 32 35  4  0  0  0
 34 33  1  0  0  0
 34 37  1  0  0  0
 38 40  4  0  0  0
 39 41  4  0  0  0
 40 41  4  0  0  0
 43 42  1  0  0  0
 45 43  1  0  0  0
 46 45  4  0  0  0
 45 47  4  0  0  0
 48 46  4  0  0  0
 47 49  4  0  0  0
 48 50  4  0  0  0
 49 50  4  0  0  0
  1 51  1  0  0  0
  2 52  1  0  0  0
  3 53  1  0  0  0
  3 54  1  0  0  0
  6 55  1  0  0  0
  7 56  1  0  0  0
  8 57  1  0  0  0
  8 58  1  0  0  0
 11 59  1  0  0  0
 11 60  1  0  0  0
 11 61  1  0  0  0
 12 62  1  0  0  0
 14 63  1  0  0  0
 17 64  1  0  0  0
 19 65  1  0  0  0
 24 66  1  0  0  0
 25 67  1  0  0  0
 26 68  1  0  0  0
 27 69  1  0  0  0
 27 70  1  0  0  0
 28 71  1  0  0  0
 28 72  1  0  0  0
 30 73  1  0  0  0
 31 74  1  0  0  0
 31 75  1  0  0  0
 31 76  1  0  0  0
 33 77  1  0  0  0
 34 78  1  0  0  0
 35 79  1  0  0  0
 36 80  1  0  0  0
 37 81  1  0  0  0
 37 82  1  0  0  0
 38 83  1  0  0  0
 39 84  1  0  0  0
 40 85  1  0  0  0
 41 86  1  0  0  0
 43 87  1  0  0  0
 43 88  1  0  0  0
 44 89  1  0  0  0
 44 90  1  0  0  0
 44 91  1  0  0  0
 46 92  1  0  0  0
 47 93  1  0  0  0
 48 94  1  0  0  0
 49 95  1  0  0  0
M  END
$$$$
