### 
### Created by X-TOOL on Wed Jan  1 15:39:36 2020
### 

@<TRIPOS>MOLECULE
5yic_ligand
   94    98     1     0     0
SMALL
GAST_HUCK


@<TRIPOS>ATOM
      1 C36       -24.5440   16.8000   -7.7550 C.ar      1 8VO        -0.0603
      2 C35       -25.1570   21.1210   -8.5170 C.3       1 8VO         0.1398
      3 C38       -25.5450   22.5350   -8.9350 C.3       1 8VO         0.0338
      4 C34       -25.2680   20.1300   -9.6730 C.2       1 8VO         0.2031
      5 C33       -24.8850   16.2610   -9.1250 C.ar      1 8VO        -0.0406
      6 C32       -21.8060   11.7870  -13.0100 C.ar      1 8VO        -0.0755
      7 C31       -22.3110   13.1090  -12.4620 C.ar      1 8VO        -0.0754
      8 C23       -23.1160   12.2590  -16.8150 C.3       1 8VO         0.0085
      9 C24       -22.7680   12.3610  -15.3900 C.ar      1 8VO        -0.0361
     10 C25       -27.3980   17.2770  -12.4540 C.2       1 8VO         0.2377
     11 C21       -26.6420   17.6060  -17.3330 C.3       1 8VO        -0.0439
     12 C14       -26.5130   16.8950  -14.8090 C.3       1 8VO         0.1692
     13 C15       -27.0360   17.9880  -15.9000 C.3       1 8VO         0.0651
     14 C16       -23.9250   14.3640  -15.9490 C.3       1 8VO         0.1007
     15 S01       -26.2860   19.4430  -15.3860 S.3       1 8VO        -0.1154
     16 S02       -27.3250   22.6350   -9.2710 S.3       1 8VO        -0.1594
     17 O03       -25.4810   12.6770  -16.7550 O.3       1 8VO        -0.3857
     18 O04       -24.1670   16.9850  -14.9590 O.2       1 8VO        -0.3935
     19 O05       -28.6040   17.8700  -10.4620 O.3       1 8VO        -0.3688
     20 O06       -27.8950   16.1950  -12.4440 O.2       1 8VO        -0.3837
     21 O07       -24.7500   20.3190  -10.7330 O.2       1 8VO        -0.3945
     22 O08       -24.0160   20.1900   -6.0440 O.2       1 8VO        -0.3944
     23 N09       -26.6500   17.6820  -13.5980 N.am      1 8VO        -0.2248
     24 N10       -25.1290   15.0250  -15.5520 N.am      1 8VO        -0.2685
     25 N11       -26.0360   18.9310   -9.4270 N.am      1 8VO        -0.2753
     26 N12       -23.7740   21.2380   -8.0680 N.am      1 8VO        -0.2634
     27 N13       -19.1230   15.9820   -4.5380 N.pl3     1 8VO        -0.3404
     28 C17       -25.9180   19.1380  -13.9620 C.2       1 8VO         0.0433
     29 C18       -25.1770   16.3680  -15.0700 C.2       1 8VO         0.2133
     30 C19       -24.2890   13.2640  -16.9950 C.3       1 8VO         0.0951
     31 C20       -28.5740   18.0880  -15.7210 C.3       1 8VO        -0.0439
     32 C22       -23.2670   13.6530  -14.8530 C.ar      1 8VO        -0.0133
     33 C26       -27.4820   18.1770  -11.2430 C.3       1 8VO         0.1744
     34 C27       -26.1980   17.8990  -10.4330 C.3       1 8VO         0.0947
     35 C28       -23.0510   14.0450  -13.3890 C.ar      1 8VO        -0.0646
     36 C29       -22.0270   11.4050  -14.4560 C.ar      1 8VO        -0.0667
     37 C30       -26.2500   16.5360   -9.7140 C.3       1 8VO         0.0086
     38 C37       -23.8760   15.4620   -9.9150 C.ar      1 8VO        -0.0603
     39 C39       -23.1730   16.5450   -7.1620 C.ar      1 8VO        -0.0686
     40 C40       -22.5080   15.2010   -9.3130 C.ar      1 8VO        -0.0686
     41 C41       -22.1660   15.7490   -7.9430 C.ar      1 8VO        -0.0687
     42 C42       -23.2960   20.7530   -6.7920 C.2       1 8VO         0.1877
     43 C43       -21.8200   20.9820   -6.4260 C.3       1 8VO         0.0646
     44 C44       -28.1540   22.7300   -7.6700 C.3       1 8VO        -0.0179
     45 C45       -21.1340   19.7080   -5.9560 C.ar      1 8VO        -0.0371
     46 C46       -20.0400   19.0790   -6.8100 C.ar      1 8VO        -0.0693
     47 C47       -21.5360   19.0880   -4.6280 C.ar      1 8VO        -0.0693
     48 C48       -19.3500   17.8040   -6.3410 C.ar      1 8VO        -0.0506
     49 C49       -20.8470   17.8260   -4.1530 C.ar      1 8VO        -0.0506
     50 C50       -19.7620   17.1840   -5.0100 C.ar      1 8VO         0.0287
     51 H1        -25.2793   17.3684   -7.1971 H         1 8VO         0.0557
     52 H2        -25.8003   20.7802   -7.6923 H         1 8VO         0.0808
     53 H3        -24.9895   22.8086   -9.8441 H         1 8VO         0.0424
     54 H4        -25.2901   23.2343   -8.1251 H         1 8VO         0.0424
     55 H5        -21.2778   11.1050  -12.3535 H         1 8VO         0.0541
     56 H6        -22.1440   13.3768  -11.4250 H         1 8VO         0.0541
     57 H7        -23.4361   11.2370  -17.0661 H         1 8VO         0.0439
     58 H8        -22.2606   12.5409  -17.4465 H         1 8VO         0.0439
     59 H9        -27.0147   18.3695  -18.0316 H         1 8VO         0.0247
     60 H10       -27.0826   16.6306  -17.5868 H         1 8VO         0.0247
     61 H11       -25.5463   17.5442  -17.4079 H         1 8VO         0.0247
     62 H12       -27.1979   16.0349  -14.7765 H         1 8VO         0.0911
     63 H13       -23.2336   15.1016  -16.3824 H         1 8VO         0.0732
     64 H14       -25.6486   12.0197  -17.4200 H         1 8VO         0.2103
     65 H15       -29.3911   17.9850  -10.9814 H         1 8VO         0.2134
     66 H16       -25.9879   14.5168  -15.6157 H         1 8VO         0.1881
     67 H17       -26.4698   18.8089   -8.5343 H         1 8VO         0.1859
     68 H18       -23.1172   21.6799   -8.6789 H         1 8VO         0.1884
     69 H19       -18.3877   15.5337   -5.1031 H         1 8VO         0.1699
     70 H20       -19.4015   15.5710   -3.6355 H         1 8VO         0.1699
     71 H21       -25.2994   19.7435  -13.3012 H         1 8VO         0.0458
     72 H22       -24.2985   13.6827  -18.0121 H         1 8VO         0.0659
     73 H23       -28.9799   18.8169  -16.4379 H         1 8VO         0.0247
     74 H24       -28.8034   18.4150  -14.6961 H         1 8VO         0.0247
     75 H25       -29.0291   17.1031  -15.9022 H         1 8VO         0.0247
     76 H26       -27.5258   19.2317  -11.5522 H         1 8VO         0.0864
     77 H27       -25.3369   17.9114  -11.1174 H         1 8VO         0.0630
     78 H28       -23.4279   14.9914  -13.0185 H         1 8VO         0.0538
     79 H29       -21.6608   10.4555  -14.8293 H         1 8VO         0.0537
     80 H30       -27.0025   16.5663   -8.9122 H         1 8VO         0.0451
     81 H31       -26.5117   15.7455  -10.4328 H         1 8VO         0.0451
     82 H32       -24.1256   15.0803  -10.8984 H         1 8VO         0.0557
     83 H33       -22.9207   16.9338   -6.1821 H         1 8VO         0.0599
     84 H34       -21.7752   14.6222   -9.8635 H         1 8VO         0.0599
     85 H35       -21.1844   15.5650   -7.5215 H         1 8VO         0.0559
     86 H36       -21.7677   21.7290   -5.6203 H         1 8VO         0.0635
     87 H37       -21.2910   21.3614   -7.3127 H         1 8VO         0.0635
     88 H38       -29.2415   22.7925   -7.8234 H         1 8VO         0.0341
     89 H39       -27.8079   23.6238   -7.1303 H         1 8VO         0.0341
     90 H40       -27.9179   21.8316   -7.0809 H         1 8VO         0.0341
     91 H41       -19.7532   19.5377   -7.7494 H         1 8VO         0.0529
     92 H42       -22.3111   19.5463   -4.0245 H         1 8VO         0.0529
     93 H43       -18.5766   17.3438   -6.9453 H         1 8VO         0.0499
     94 H44       -21.1249   17.3798   -3.2050 H         1 8VO         0.0499
@<TRIPOS>BOND
     1    5    1 ar 
     2    1   39 ar 
     3    2    3 1  
     4    2    4 1  
     5   26    2 1  
     6    3   16 1  
     7    4   21 2  
     8    4   25 am 
     9   37    5 1  
    10    5   38 ar 
    11    7    6 ar 
    12   36    6 ar 
    13   35    7 ar 
    14    9    8 1  
    15   30    8 1  
    16   32    9 ar 
    17    9   36 ar 
    18   10   20 2  
    19   10   23 am 
    20   33   10 1  
    21   13   11 1  
    22   12   13 1  
    23   23   12 1  
    24   12   29 1  
    25   15   13 1  
    26   13   31 1  
    27   24   14 1  
    28   14   30 1  
    29   14   32 1  
    30   28   15 1  
    31   16   44 1  
    32   30   17 1  
    33   29   18 2  
    34   33   19 1  
    35   42   22 2  
    36   23   28 1  
    37   29   24 am 
    38   25   34 1  
    39   42   26 am 
    40   50   27 1  
    41   32   35 ar 
    42   34   33 1  
    43   34   37 1  
    44   38   40 ar 
    45   39   41 ar 
    46   40   41 ar 
    47   43   42 1  
    48   45   43 1  
    49   46   45 ar 
    50   45   47 ar 
    51   48   46 ar 
    52   47   49 ar 
    53   48   50 ar 
    54   49   50 ar 
    55    1   51 1  
    56    2   52 1  
    57    3   53 1  
    58    3   54 1  
    59    6   55 1  
    60    7   56 1  
    61    8   57 1  
    62    8   58 1  
    63   11   59 1  
    64   11   60 1  
    65   11   61 1  
    66   12   62 1  
    67   14   63 1  
    68   17   64 1  
    69   19   65 1  
    70   24   66 1  
    71   25   67 1  
    72   26   68 1  
    73   27   69 1  
    74   27   70 1  
    75   28   71 1  
    76   30   72 1  
    77   31   73 1  
    78   31   74 1  
    79   31   75 1  
    80   33   76 1  
    81   34   77 1  
    82   35   78 1  
    83   36   79 1  
    84   37   80 1  
    85   37   81 1  
    86   38   82 1  
    87   39   83 1  
    88   40   84 1  
    89   41   85 1  
    90   43   86 1  
    91   43   87 1  
    92   44   88 1  
    93   44   89 1  
    94   44   90 1  
    95   46   91 1  
    96   47   92 1  
    97   48   93 1  
    98   49   94 1  
@<TRIPOS>SUBSTRUCTURE
     1 8VO         1

