2y9g_ligand
  -I-interpret- 

 45 46  0  0  0  0  0  0  0  0999 V2000
   -0.4550    4.3450   -1.5860 C   0  0  0  0  0
   -1.1680    4.8160   -2.8590 C   0  0  0  0  0
   -0.2080    4.7700   -4.0440 C   0  0  0  0  0
    1.0460    5.5680   -3.6660 C   0  0  0  0  0
    1.6850    4.9250   -2.3880 C   0  0  0  0  0
    2.9900    5.6410   -1.9340 C   0  0  0  0  0
   -1.2810    4.7030   -0.4970 O   0  0  0  0  0
   -2.3480    4.0320   -3.1730 O   0  0  0  0  0
   -0.8830    5.4030   -5.1900 O   0  0  0  0  0
    0.6990    6.9800   -3.3230 O   0  0  0  0  0
    0.6910    5.1610   -1.3660 O   0  0  0  0  0
    4.0620    5.5140   -2.9380 O   0  0  0  0  0
   -2.1770    3.3660    3.3540 C   0  0  0  0  0
   -1.0020    4.3560    3.2630 C   0  0  0  0  0
   -0.9880    4.9870    1.8910 C   0  0  0  0  0
   -1.0870    3.9770    0.7320 C   0  0  0  0  0
   -2.3030    3.0410    0.9470 C   0  0  0  0  0
   -2.3330    1.8410    0.0260 C   0  0  0  0  0
   -3.4240    4.0130    3.4310 O   0  0  0  0  0
   -1.1710    5.3890    4.2790 O   0  0  0  0  0
    0.1480    5.8690    1.8230 O   0  0  0  0  0
   -2.2200    2.4430    2.3040 O   0  0  0  0  0
   -1.0100    1.2180   -0.0600 O   0  0  0  0  0
   -0.2257    3.2831   -1.6749 H   0  0  0  0  0
   -1.4954    5.8382   -2.6694 H   0  0  0  0  0
    0.0732    3.7484   -4.2995 H   0  0  0  0  0
    1.7288    5.5526   -4.5155 H   0  0  0  0  0
    1.9443    3.8825   -2.5729 H   0  0  0  0  0
    3.3309    5.1773   -1.0084 H   0  0  0  0  0
    2.7705    6.7001   -1.7993 H   0  0  0  0  0
   -2.9552    4.0581   -2.4299 H   0  0  0  0  0
   -1.6658    4.8965   -5.4185 H   0  0  0  0  0
    0.3034    7.4058   -4.0871 H   0  0  0  0  0
    4.8483    5.9665   -2.6239 H   0  0  0  0  0
   -1.9886    2.8226    4.2799 H   0  0  0  0  0
   -0.0600    3.8333    3.4285 H   0  0  0  0  0
   -1.8969    5.5725    1.7526 H   0  0  0  0  0
   -0.1736    3.3836    0.6915 H   0  0  0  0  0
   -3.1755    3.6700    0.7704 H   0  0  0  0  0
   -2.6322    2.1693   -0.9694 H   0  0  0  0  0
   -3.0398    1.1117    0.4219 H   0  0  0  0  0
   -4.1215    3.3556    3.4858 H   0  0  0  0  0
   -0.4406    6.0098    4.2271 H   0  0  0  0  0
    0.1786    6.2834    0.9576 H   0  0  0  0  0
   -1.0519    0.4604   -0.6482 H   0  0  0  0  0
  1  2  1  0  0  0
  7  1  1  0  0  0
  1 11  1  0  0  0
  2  3  1  0  0  0
  2  8  1  0  0  0
  3  4  1  0  0  0
  3  9  1  0  0  0
  5  4  1  0  0  0
  4 10  1  0  0  0
  5  6  1  0  0  0
 11  5  1  0  0  0
  6 12  1  0  0  0
 16  7  1  0  0  0
 14 13  1  0  0  0
 13 19  1  0  0  0
 13 22  1  0  0  0
 15 14  1  0  0  0
 14 20  1  0  0  0
 15 16  1  0  0  0
 15 21  1  0  0  0
 16 17  1  0  0  0
 17 18  1  0  0  0
 17 22  1  0  0  0
 18 23  1  0  0  0
  1 24  1  0  0  0
  2 25  1  0  0  0
  3 26  1  0  0  0
  4 27  1  0  0  0
  5 28  1  0  0  0
  6 29  1  0  0  0
  6 30  1  0  0  0
  8 31  1  0  0  0
  9 32  1  0  0  0
 10 33  1  0  0  0
 12 34  1  0  0  0
 13 35  1  0  0  0
 14 36  1  0  0  0
 15 37  1  0  0  0
 16 38  1  0  0  0
 17 39  1  0  0  0
 18 40  1  0  0  0
 18 41  1  0  0  0
 19 42  1  0  0  0
 20 43  1  0  0  0
 21 44  1  0  0  0
 23 45  1  0  0  0
M  END
$$$$
