5hg7_ligand
  -I-interpret- 

 53 56  0  0  0  0  0  0  0  0999 V2000
  -13.6810   11.5550  -27.8850 N   0  0  0  0  0
  -13.4740   13.9450  -27.9630 N   0  0  0  0  0
  -12.8400   15.1130  -28.3140 C   0  0  0  0  0
  -11.6230   15.0340  -29.0390 C   0  0  0  0  0
  -11.1860   13.7280  -29.3310 C   0  0  0  0  0
  -10.6640   15.9170  -29.5860 C   0  0  0  0  0
  -14.2770   16.1870  -26.8040 C   0  0  0  0  0
  -14.0030   18.6760  -26.0820 C   0  0  0  0  0
  -14.0170   18.0840  -21.6780 C   0  0  0  0  0
  -14.0990   17.4500  -20.2950 C   0  0  0  0  0
  -14.0640   21.0840  -26.2010 C   0  0  0  0  0
  -15.4350   10.2340  -26.8420 C   0  0  0  0  0
  -12.9710   12.7190  -28.2900 C   0  0  0  0  0
  -11.8050   12.5510  -28.9910 N   0  0  0  0  0
  -10.0100   13.8300  -30.0290 N   0  0  0  0  0
   -9.6830   15.1550  -30.1900 C   0  0  0  0  0
  -10.7240   17.6150  -29.5020 Cl  0  0  0  0  0
  -13.4080   16.3390  -27.9500 O   0  0  0  0  0
  -14.9400   17.4960  -26.3730 C   0  0  0  0  0
  -13.6090   18.4330  -24.6150 C   0  0  0  0  0
  -14.7880   17.7720  -24.0240 N   0  0  0  0  0
  -15.7080   17.3170  -25.0660 C   0  0  0  0  0
  -15.0700   17.5690  -22.6640 C   0  0  0  0  0
  -16.1050   17.0170  -22.2730 O   0  0  0  0  0
  -14.8010   19.8690  -26.2200 O   0  0  0  0  0
  -14.8460   11.4290  -27.1760 C   0  0  0  0  0
  -16.5610   10.5510  -26.1360 N   0  0  0  0  0
  -16.7540   11.8660  -25.9850 N   0  0  0  0  0
  -15.7100   12.3990  -26.6180 C   0  0  0  0  0
  -17.5160    9.6330  -25.5660 C   0  0  0  0  0
  -13.2542   10.6728  -28.1679 H   0  0  0  0  0
  -13.6674   15.8357  -25.9715 H   0  0  0  0  0
  -15.0690   15.4908  -27.0800 H   0  0  0  0  0
  -13.1286   18.7718  -26.7257 H   0  0  0  0  0
  -13.0393   17.8346  -22.0902 H   0  0  0  0  0
  -14.1868   19.1535  -21.5536 H   0  0  0  0  0
  -15.0765   17.6568  -19.8593 H   0  0  0  0  0
  -13.9591   16.3725  -20.3818 H   0  0  0  0  0
  -13.3199   17.8687  -19.6580 H   0  0  0  0  0
  -13.5310   21.1693  -25.2541 H   0  0  0  0  0
  -13.3488   21.0865  -27.0235 H   0  0  0  0  0
  -14.7490   21.9247  -26.3109 H   0  0  0  0  0
  -15.0766    9.2349  -27.0900 H   0  0  0  0  0
   -8.8021   15.5382  -30.7051 H   0  0  0  0  0
  -15.5554   17.7284  -27.2421 H   0  0  0  0  0
  -13.3574   19.3598  -24.0994 H   0  0  0  0  0
  -12.7103   17.8224  -24.5278 H   0  0  0  0  0
  -16.0121   16.2814  -24.9136 H   0  0  0  0  0
  -16.6379   17.8857  -25.0616 H   0  0  0  0  0
  -15.5395   13.4726  -26.6975 H   0  0  0  0  0
  -17.9511    9.0246  -26.3589 H   0  0  0  0  0
  -17.0127    8.9879  -24.8458 H   0  0  0  0  0
  -18.3035   10.1951  -25.0640 H   0  0  0  0  0
 13  1  1  0  0  0
  1 26  1  0  0  0
  3  2  4  0  0  0
  2 13  4  0  0  0
  3  4  4  0  0  0
 18  3  1  0  0  0
  4  5  4  0  0  0
  4  6  4  0  0  0
  5 14  4  0  0  0
  5 15  4  0  0  0
  6 16  4  0  0  0
  6 17  1  0  0  0
  7 18  1  0  0  0
 19  7  1  0  0  0
 19  8  1  0  0  0
 20  8  1  0  0  0
  8 25  1  0  0  0
  9 10  1  0  0  0
 23  9  1  0  0  0
 25 11  1  0  0  0
 26 12  4  0  0  0
 12 27  4  0  0  0
 13 14  4  0  0  0
 16 15  4  0  0  0
 22 19  1  0  0  0
 21 20  1  0  0  0
 21 22  1  0  0  0
 21 23  1  0  0  0
 23 24  2  0  0  0
 26 29  4  0  0  0
 27 28  4  0  0  0
 27 30  1  0  0  0
 28 29  4  0  0  0
  1 31  1  0  0  0
  7 32  1  0  0  0
  7 33  1  0  0  0
  8 34  1  0  0  0
  9 35  1  0  0  0
  9 36  1  0  0  0
 10 37  1  0  0  0
 10 38  1  0  0  0
 10 39  1  0  0  0
 11 40  1  0  0  0
 11 41  1  0  0  0
 11 42  1  0  0  0
 12 43  1  0  0  0
 16 44  1  0  0  0
 19 45  1  0  0  0
 20 46  1  0  0  0
 20 47  1  0  0  0
 22 48  1  0  0  0
 22 49  1  0  0  0
 29 50  1  0  0  0
 30 51  1  0  0  0
 30 52  1  0  0  0
 30 53  1  0  0  0
M  END
$$$$
