### 
### Created by X-TOOL on Fri Nov 18 11:54:39 2016
### 

@<TRIPOS>MOLECULE
1csi_ligand
   84    86     1     0     0
SMALL
GAST_HUCK


@<TRIPOS>ATOM
      1 AN1        19.5210   -8.0930   13.3460 N.ar      1 CMX        -0.2698
      2 AC2        18.9800   -8.6600   14.4070 C.ar      1 CMX         0.0533
      3 AN3        18.1560   -9.6980   14.4670 N.ar      1 CMX        -0.2714
      4 AC4        17.9020  -10.1880   13.2420 C.ar      1 CMX         0.1613
      5 AC5        18.4020   -9.7400   12.0420 C.ar      1 CMX         0.1045
      6 AC6        19.2650   -8.6330   12.1040 C.ar      1 CMX         0.1298
      7 AN6        19.8000   -8.0470   11.0530 N.pl3     1 CMX        -0.3152
      8 AN7        17.8760  -10.5040   10.9890 N.2       1 CMX        -0.2958
      9 AC8        17.1220  -11.4010   11.5690 C.2       1 CMX         0.1123
     10 AN9        17.1070  -11.2820   12.9480 N.pl3     1 CMX        -0.1919
     11 AC1        16.2340  -12.1150   13.7870 C.3       1 CMX         0.2013
     12 AC2        14.8090  -11.8360   13.3150 C.3       1 CMX         0.1432
     13 AO2        14.3590  -10.5390   13.6310 O.3       1 CMX        -0.3832
     14 AC3        14.0740  -12.9830   13.9770 C.3       1 CMX         0.1487
     15 AO3        14.0460  -12.7780   15.3990 O.3       1 CMX        -0.2674
     16 AP3        12.7130  -13.1270   16.2540 P.3       1 CMX         0.2013
     17 AO7        11.5520  -12.4560   15.6500 O.co2     1 CMX        -0.5537
     18 AO8        12.9700  -12.8690   17.6900 O.co2     1 CMX        -0.5537
     19 AO9        12.5630  -14.5990   16.0160 O.co2     1 CMX        -0.5537
     20 AC4        15.0490  -14.1350   13.6700 C.3       1 CMX         0.1235
     21 AO4        16.3340  -13.5080   13.4660 O.3       1 CMX        -0.3360
     22 AC5        14.7020  -14.8980   12.4160 C.3       1 CMX         0.1131
     23 AO5        14.3910  -13.9300   11.4190 O.3       1 CMX        -0.2476
     24 AP1        14.7370  -14.3770    9.9310 P.3       1 CMX         0.2972
     25 AO1        13.9160  -15.5130    9.4660 O.co2     1 CMX        -0.6127
     26 AO2        16.2190  -14.5800    9.8450 O.co2     1 CMX        -0.6127
     27 AO3        14.4740  -13.0110    9.1320 O.3       1 CMX        -0.1319
     28 AP2        13.0440  -12.6740    8.4450 P.3       1 CMX         0.2971
     29 AO4        12.9440  -13.3320    7.1390 O.co2     1 CMX        -0.6127
     30 AO5        11.9670  -12.7250    9.4370 O.co2     1 CMX        -0.6127
     31 AO6        13.3570  -11.0840    8.2140 O.3       1 CMX        -0.2496
     32 PC11       14.7020   -9.2030    7.5510 C.3       1 CMX         0.0367
     33 PC12       14.2100  -10.6030    7.1770 C.3       1 CMX         0.0936
     34 PC13       15.3930   -8.5820    6.3200 C.3       1 CMX        -0.0528
     35 PC14       13.4360   -8.3990    7.9400 C.3       1 CMX        -0.0528
     36 PC10       15.6380   -9.3450    8.7630 C.3       1 CMX         0.1510
     37 PO10       16.8550  -10.0050    8.4190 O.3       1 CMX        -0.3708
     38 PC9        15.9860   -7.9850    9.3940 C.2       1 CMX         0.2057
     39 PO9        15.2970   -7.4620   10.2860 O.2       1 CMX        -0.3942
     40 PN8        17.0820   -7.4000    8.9530 N.am      1 CMX        -0.2826
     41 PC7        17.5300   -6.0670    9.4250 C.3       1 CMX         0.0477
     42 PC6        16.7750   -5.0000    8.6380 C.3       1 CMX         0.0574
     43 PC5        17.2350   -4.8380    7.1960 C.2       1 CMX         0.1779
     44 PO5        18.4520   -4.8130    6.9180 O.2       1 CMX        -0.3970
     45 PN4        16.2850   -4.6670    6.2640 N.am      1 CMX        -0.2868
     46 PC3        16.6860   -4.4480    4.8790 C.3       1 CMX         0.0324
     47 PC2        16.3850   -5.6530    3.9610 C.3       1 CMX        -0.0212
     48 C1         16.6140   -5.3730    2.4210 C.3       1 CMX         0.0020
     49 C2         15.5880   -4.4180    1.9150 C.2       1 CMX         0.0349
     50 O21        14.4100   -4.6810    1.8870 O.co2     1 CMX        -0.5690
     51 O22        16.0320   -3.2750    1.5480 O.co2     1 CMX        -0.5690
     52 H1         19.2449   -8.2172   15.3603 H         1 CMX         0.0996
     53 H2         19.6290   -8.4246   10.1101 H         1 CMX         0.1820
     54 H3         20.3895   -7.2111   11.1739 H         1 CMX         0.1820
     55 H4         16.5645  -12.1617   11.0245 H         1 CMX         0.1349
     56 H5         16.3970  -11.9161   14.8565 H         1 CMX         0.0996
     57 H6         14.7449  -11.9413   12.2219 H         1 CMX         0.0680
     58 H7         13.4708  -10.4269   13.3130 H         1 CMX         0.2101
     59 H8         13.0641  -13.1435   13.5717 H         1 CMX         0.0704
     60 H9         15.0823  -14.8309   14.5213 H         1 CMX         0.0654
     61 H10        13.8334  -15.5484   12.5964 H         1 CMX         0.0648
     62 H11        15.5581  -15.5099   12.0958 H         1 CMX         0.0648
     63 H12        13.6515  -10.5577    6.2304 H         1 CMX         0.0628
     64 H13        15.0704  -11.2788    7.0631 H         1 CMX         0.0628
     65 H14        15.7534   -7.5736    6.5716 H         1 CMX         0.0238
     66 H15        14.6745   -8.5179    5.4896 H         1 CMX         0.0238
     67 H16        16.2440   -9.2114    6.0208 H         1 CMX         0.0238
     68 H17        12.9633   -8.8620    8.8188 H         1 CMX         0.0238
     69 H18        12.7273   -8.4012    7.0987 H         1 CMX         0.0238
     70 H19        13.7185   -7.3631    8.1788 H         1 CMX         0.0238
     71 H20        15.1157   -9.9518    9.5173 H         1 CMX         0.0844
     72 H21        17.4054  -10.0740    9.1902 H         1 CMX         0.2133
     73 H22        17.6360   -7.8760    8.2700 H         1 CMX         0.1853
     74 H23        18.6115   -5.9573    9.2568 H         1 CMX         0.0545
     75 H24        17.3131   -5.9604   10.4981 H         1 CMX         0.0545
     76 H25        16.9070   -4.0362    9.1514 H         1 CMX         0.0522
     77 H26        15.7083   -5.2685    8.6306 H         1 CMX         0.0522
     78 H27        15.3173   -4.6894    6.5151 H         1 CMX         0.1851
     79 H28        17.7681   -4.2520    4.8551 H         1 CMX         0.0521
     80 H29        16.1458   -3.5709    4.4931 H         1 CMX         0.0521
     81 H30        15.3335   -5.9419    4.1057 H         1 CMX         0.0302
     82 H31        17.0386   -6.4856    4.2604 H         1 CMX         0.0302
     83 H32        16.5368   -6.3184    1.8641 H         1 CMX         0.0431
     84 H33        17.6154   -4.9420    2.2747 H         1 CMX         0.0431
@<TRIPOS>BOND
     1    1    2 ar 
     2    1    6 ar 
     3    2    3 ar 
     4    3    4 ar 
     5    4    5 ar 
     6    4   10 1  
     7    5    6 ar 
     8    5    8 1  
     9    6    7 1  
    10    8    9 2  
    11    9   10 1  
    12   10   11 1  
    13   11   12 1  
    14   11   21 1  
    15   12   13 1  
    16   12   14 1  
    17   14   15 1  
    18   14   20 1  
    19   15   16 1  
    20   16   17 ar 
    21   16   18 ar 
    22   16   19 ar 
    23   20   21 1  
    24   20   22 1  
    25   22   23 1  
    26   23   24 1  
    27   24   25 ar 
    28   24   26 ar 
    29   24   27 1  
    30   27   28 1  
    31   28   29 ar 
    32   28   30 ar 
    33   28   31 1  
    34   31   33 1  
    35   33   32 1  
    36   32   34 1  
    37   32   35 1  
    38   32   36 1  
    39   36   37 1  
    40   36   38 1  
    41   38   39 2  
    42   38   40 am 
    43   40   41 1  
    44   41   42 1  
    45   42   43 1  
    46   43   44 2  
    47   43   45 am 
    48   45   46 1  
    49   46   47 1  
    50   47   48 1  
    51   48   49 1  
    52   49   50 ar 
    53   49   51 ar 
    54    2   52 1  
    55    7   53 1  
    56    7   54 1  
    57    9   55 1  
    58   11   56 1  
    59   12   57 1  
    60   13   58 1  
    61   14   59 1  
    62   20   60 1  
    63   22   61 1  
    64   22   62 1  
    65   33   63 1  
    66   33   64 1  
    67   34   65 1  
    68   34   66 1  
    69   34   67 1  
    70   35   68 1  
    71   35   69 1  
    72   35   70 1  
    73   36   71 1  
    74   37   72 1  
    75   40   73 1  
    76   41   74 1  
    77   41   75 1  
    78   42   76 1  
    79   42   77 1  
    80   45   78 1  
    81   46   79 1  
    82   46   80 1  
    83   47   81 1  
    84   47   82 1  
    85   48   83 1  
    86   48   84 1  
@<TRIPOS>SUBSTRUCTURE
     1 CMX         1

