1csi_ligand
  -I-interpret- 

 89 91  0  0  0  0  0  0  0  0999 V2000
   19.5210   -8.0930   13.3460 N   0  0  0  0  0
   18.9800   -8.6600   14.4070 C   0  0  0  0  0
   18.1560   -9.6980   14.4670 N   0  0  0  0  0
   17.9020  -10.1880   13.2420 C   0  0  0  0  0
   18.4020   -9.7400   12.0420 C   0  0  0  0  0
   19.2650   -8.6330   12.1040 C   0  0  0  0  0
   19.8000   -8.0470   11.0530 N   0  0  0  0  0
   17.8760  -10.5040   10.9890 N   0  0  0  0  0
   17.1220  -11.4010   11.5690 C   0  0  0  0  0
   17.1070  -11.2820   12.9480 N   0  0  0  0  0
   16.2340  -12.1150   13.7870 C   0  0  0  0  0
   14.8090  -11.8360   13.3150 C   0  0  0  0  0
   14.3590  -10.5390   13.6310 O   0  0  0  0  0
   14.0740  -12.9830   13.9770 C   0  0  0  0  0
   14.0460  -12.7780   15.3990 O   0  0  0  0  0
   12.7130  -13.1270   16.2540 P   0  0  0  0  0
   11.5520  -12.4560   15.6500 O   0  0  0  0  0
   12.9700  -12.8690   17.6900 O   0  0  0  0  0
   12.5630  -14.5990   16.0160 O   0  0  0  0  0
   15.0490  -14.1350   13.6700 C   0  0  0  0  0
   16.3340  -13.5080   13.4660 O   0  0  0  0  0
   14.7020  -14.8980   12.4160 C   0  0  0  0  0
   14.3910  -13.9300   11.4190 O   0  0  0  0  0
   14.7370  -14.3770    9.9310 P   0  0  0  0  0
   13.9160  -15.5130    9.4660 O   0  0  0  0  0
   16.2190  -14.5800    9.8450 O   0  0  0  0  0
   14.4740  -13.0110    9.1320 O   0  0  0  0  0
   13.0440  -12.6740    8.4450 P   0  0  0  0  0
   12.9440  -13.3320    7.1390 O   0  0  0  0  0
   11.9670  -12.7250    9.4370 O   0  0  0  0  0
   13.3570  -11.0840    8.2140 O   0  0  0  0  0
   14.7020   -9.2030    7.5510 C   0  0  0  0  0
   14.2100  -10.6030    7.1770 C   0  0  0  0  0
   15.3930   -8.5820    6.3200 C   0  0  0  0  0
   13.4360   -8.3990    7.9400 C   0  0  0  0  0
   15.6380   -9.3450    8.7630 C   0  0  0  0  0
   16.8550  -10.0050    8.4190 O   0  0  0  0  0
   15.9860   -7.9850    9.3940 C   0  0  0  0  0
   15.2970   -7.4620   10.2860 O   0  0  0  0  0
   17.0820   -7.4000    8.9530 N   0  0  0  0  0
   17.5300   -6.0670    9.4250 C   0  0  0  0  0
   16.7750   -5.0000    8.6380 C   0  0  0  0  0
   17.2350   -4.8380    7.1960 C   0  0  0  0  0
   18.4520   -4.8130    6.9180 O   0  0  0  0  0
   16.2850   -4.6670    6.2640 N   0  0  0  0  0
   16.6860   -4.4480    4.8790 C   0  0  0  0  0
   16.3850   -5.6530    3.9610 C   0  0  0  0  0
   16.6140   -5.3730    2.4210 C   0  0  0  0  0
   15.5880   -4.4180    1.9150 C   0  0  0  0  0
   14.4100   -4.6810    1.8870 O   0  0  0  0  0
   16.0320   -3.2750    1.5480 O   0  0  0  0  0
   19.2464   -8.2148   15.3656 H   0  0  0  0  0
   20.3838   -7.2192   11.1727 H   0  0  0  0  0
   19.6306   -8.4209   10.1193 H   0  0  0  0  0
   16.5640  -12.1624   11.0240 H   0  0  0  0  0
   16.4877  -11.9055   14.8262 H   0  0  0  0  0
   14.6659  -11.8145   12.2347 H   0  0  0  0  0
   13.4615  -10.4258   13.3097 H   0  0  0  0  0
   13.0452  -13.1253   13.6463 H   0  0  0  0  0
   13.7479  -13.3583   17.9676 H   0  0  0  0  0
   13.3103  -15.0621   16.4016 H   0  0  0  0  0
   15.0208  -14.8523   14.4902 H   0  0  0  0  0
   13.8556  -15.5629   12.5883 H   0  0  0  0  0
   15.5356  -15.5254   12.1006 H   0  0  0  0  0
   16.6676  -13.7946   10.1667 H   0  0  0  0  0
   13.7509  -13.1787    6.6421 H   0  0  0  0  0
   13.6604  -10.5619    6.2366 H   0  0  0  0  0
   15.0610  -11.2737    7.0585 H   0  0  0  0  0
   16.2360   -9.2066    6.0245 H   0  0  0  0  0
   14.6800   -8.5191    5.4979 H   0  0  0  0  0
   15.7496   -7.5829    6.5706 H   0  0  0  0  0
   12.7537   -8.3646    7.0906 H   0  0  0  0  0
   12.9442   -8.8838    8.7833 H   0  0  0  0  0
   13.7226   -7.3850    8.2187 H   0  0  0  0  0
   15.0875   -9.9454    9.4873 H   0  0  0  0  0
   17.4112  -10.0748    9.1983 H   0  0  0  0  0
   17.6470   -7.8855    8.2563 H   0  0  0  0  0
   18.6031   -5.9568    9.2688 H   0  0  0  0  0
   17.3255   -5.9599   10.4903 H   0  0  0  0  0
   16.9521   -4.0482    9.1388 H   0  0  0  0  0
   15.7291   -5.3055    8.6075 H   0  0  0  0  0
   15.2979   -4.6898    6.5201 H   0  0  0  0  0
   17.7638   -4.2859    4.8688 H   0  0  0  0  0
   16.1203   -3.5960    4.5020 H   0  0  0  0  0
   15.3305   -5.8974    4.0887 H   0  0  0  0  0
   17.0693   -6.4519    4.2465 H   0  0  0  0  0
   16.5315   -6.3106    1.8712 H   0  0  0  0  0
   17.6047   -4.9410    2.2798 H   0  0  0  0  0
   16.9873   -3.2588    1.6420 H   0  0  0  0  0
  1  2  4  0  0  0
  1  6  4  0  0  0
  2  3  4  0  0  0
  3  4  4  0  0  0
  4  5  4  0  0  0
  4 10  4  0  0  0
  5  6  4  0  0  0
  5  8  4  0  0  0
  6  7  1  0  0  0
  8  9  4  0  0  0
  9 10  4  0  0  0
 10 11  1  0  0  0
 11 12  1  0  0  0
 11 21  1  0  0  0
 12 13  1  0  0  0
 12 14  1  0  0  0
 14 15  1  0  0  0
 14 20  1  0  0  0
 15 16  1  0  0  0
 16 17  2  0  0  0
 16 18  1  0  0  0
 16 19  1  0  0  0
 20 21  1  0  0  0
 20 22  1  0  0  0
 22 23  1  0  0  0
 23 24  1  0  0  0
 24 25  2  0  0  0
 24 26  1  0  0  0
 24 27  1  0  0  0
 27 28  1  0  0  0
 28 29  1  0  0  0
 28 30  2  0  0  0
 28 31  1  0  0  0
 31 33  1  0  0  0
 33 32  1  0  0  0
 32 34  1  0  0  0
 32 35  1  0  0  0
 32 36  1  0  0  0
 36 37  1  0  0  0
 36 38  1  0  0  0
 38 39  2  0  0  0
 38 40  1  0  0  0
 40 41  1  0  0  0
 41 42  1  0  0  0
 42 43  1  0  0  0
 43 44  2  0  0  0
 43 45  1  0  0  0
 45 46  1  0  0  0
 46 47  1  0  0  0
 47 48  1  0  0  0
 48 49  1  0  0  0
 49 50  2  0  0  0
 49 51  1  0  0  0
  2 52  1  0  0  0
  7 53  1  0  0  0
  7 54  1  0  0  0
  9 55  1  0  0  0
 11 56  1  0  0  0
 12 57  1  0  0  0
 13 58  1  0  0  0
 14 59  1  0  0  0
 18 60  1  0  0  0
 19 61  1  0  0  0
 20 62  1  0  0  0
 22 63  1  0  0  0
 22 64  1  0  0  0
 26 65  1  0  0  0
 29 66  1  0  0  0
 33 67  1  0  0  0
 33 68  1  0  0  0
 34 69  1  0  0  0
 34 70  1  0  0  0
 34 71  1  0  0  0
 35 72  1  0  0  0
 35 73  1  0  0  0
 35 74  1  0  0  0
 36 75  1  0  0  0
 37 76  1  0  0  0
 40 77  1  0  0  0
 41 78  1  0  0  0
 41 79  1  0  0  0
 42 80  1  0  0  0
 42 81  1  0  0  0
 45 82  1  0  0  0
 46 83  1  0  0  0
 46 84  1  0  0  0
 47 85  1  0  0  0
 47 86  1  0  0  0
 48 87  1  0  0  0
 48 88  1  0  0  0
 51 89  1  0  0  0
M  END
$$$$
