3muk_ligand
  -I-interpret- 

109108  0  0  0  0  0  0  0  0999 V2000
    2.5900  -15.0600   -3.2660 N   0  3  0  0  0
    1.1340  -14.7870   -3.4420 C   0  0  0  0  0
    0.9060  -13.4100   -4.0020 C   0  0  0  0  0
    1.6780  -12.5430   -3.7750 O   0  0  0  0  0
    0.3900  -14.8920   -2.0940 C   0  0  0  0  0
   -0.2540  -13.1540   -4.6200 N   0  0  0  0  0
   -0.5860  -11.7890   -4.9730 C   0  0  0  0  0
   -2.0990  -11.6010   -4.8790 C   0  0  0  0  0
   -2.8560  -12.5920   -4.8580 O   0  0  0  0  0
   -0.1320  -11.4490   -6.4400 C   0  0  0  0  0
   -0.7710  -12.3530   -7.3540 O   0  0  0  0  0
    1.4030  -11.5190   -6.6370 C   0  0  0  0  0
   -4.6930  -10.1530   -5.9940 C   0  0  0  0  0
   -2.5230  -10.3430   -4.8630 N   0  0  0  0  0
   -5.9670  -10.2800   -5.9850 O   0  0  0  0  0
   -3.9440  -10.0260   -4.6850 C   0  0  0  0  0
   -4.1130   -8.5980   -4.1340 C   0  0  0  0  0
   -4.1390   -7.2640   -2.0160 C   0  0  0  0  0
   -3.6040   -7.1770   -0.5820 C   0  0  0  0  0
   -3.5180   -8.4410   -2.7340 C   0  0  0  0  0
   -4.3710   -6.0920    0.0640 N   0  0  0  0  0
   -5.9540   -4.2420    1.4050 C   0  0  0  0  0
   -2.5500   -4.8380    0.2390 O   0  0  0  0  0
   -4.5620   -3.8250    1.0660 C   0  0  0  0  0
   -3.7760   -4.9520    0.4290 C   0  0  0  0  0
   -3.9560  -10.0720   -7.1100 N   0  0  0  0  0
   -4.5680  -10.1410   -8.4490 C   0  0  0  0  0
   -3.5810  -10.7210   -9.4490 C   0  0  0  0  0
   -2.3900  -10.8390   -9.1320 O   0  0  0  0  0
   -5.0000   -8.7760   -8.8830 C   0  0  0  0  0
   -4.0630  -11.0750  -10.6540 N   0  0  0  0  0
   -3.1600  -11.4260  -11.7840 C   0  0  0  0  0
   -2.1620  -10.2780  -12.1410 C   0  0  0  0  0
   -2.4620   -9.0620  -12.0030 O   0  0  0  0  0
   -3.9670  -11.8530  -13.0280 C   0  0  0  0  0
   -0.9530  -10.6540  -12.5550 N   0  0  0  0  0
    0.0080   -9.6520  -13.0130 C   0  0  0  0  0
   -0.6020   -9.0030  -14.2730 C   0  0  0  0  0
   -0.9900   -9.7130  -15.2290 O   0  0  0  0  0
    1.4100  -10.2650  -13.3110 C   0  0  0  0  0
   -0.6950   -7.6660  -14.2430 N   0  0  0  0  0
   -1.1420   -6.8670  -15.3950 C   0  0  0  0  0
   -0.0260   -6.7560  -16.4380 C   0  0  0  0  0
    1.1450   -6.5080  -16.0880 O   0  0  0  0  0
   -1.5530   -5.4720  -14.9280 C   0  0  0  0  0
   -2.7740   -5.4630  -14.0290 C   0  0  0  0  0
   -3.1660   -4.0210  -13.7050 C   0  0  0  0  0
   -4.4950   -3.9330  -12.9880 C   0  0  0  0  0
   -4.8650   -2.4960  -12.7200 N   0  3  0  0  0
   -0.2930   -6.9165  -17.6589 O   0  0  0  0  0
    3.0602  -14.9851   -4.1680 H   0  0  0  0  0
    2.9862  -14.3799   -2.6172 H   0  0  0  0  0
    2.7156  -16.0009   -2.8928 H   0  0  0  0  0
    0.7496  -15.5333   -4.1372 H   0  0  0  0  0
    0.7776  -14.1398   -1.4070 H   0  0  0  0  0
   -0.6751  -14.7250   -2.2544 H   0  0  0  0  0
    0.5438  -15.8851   -1.6719 H   0  0  0  0  0
   -0.8982  -13.9136   -4.8402 H   0  0  0  0  0
   -0.0658  -11.1252   -4.2824 H   0  0  0  0  0
   -0.4293  -10.4187   -6.6353 H   0  0  0  0  0
   -0.4956  -12.1477   -8.2504 H   0  0  0  0  0
    1.7467  -12.5354   -6.4451 H   0  0  0  0  0
    1.6498  -11.2378   -7.6608 H   0  0  0  0  0
    1.8887  -10.8328   -5.9433 H   0  0  0  0  0
   -1.8500   -9.5850   -4.9763 H   0  0  0  0  0
   -4.3576  -10.7384   -3.9712 H   0  0  0  0  0
   -5.1799   -8.3832   -4.0737 H   0  0  0  0  0
   -3.5898   -7.9139   -4.8021 H   0  0  0  0  0
   -3.8853   -6.3471   -2.5479 H   0  0  0  0  0
   -5.2208   -7.3944   -1.9861 H   0  0  0  0  0
   -2.5338   -6.9708   -0.5682 H   0  0  0  0  0
   -3.7280   -8.1218   -0.0528 H   0  0  0  0  0
   -2.4451   -8.2712   -2.8249 H   0  0  0  0  0
   -3.7191   -9.3473   -2.1628 H   0  0  0  0  0
   -5.3692   -6.2146    0.2340 H   0  0  0  0  0
   -6.4713   -4.5495    0.4962 H   0  0  0  0  0
   -5.9215   -5.0760    2.1060 H   0  0  0  0  0
   -6.4824   -3.4040    1.8595 H   0  0  0  0  0
   -4.0577   -3.5340    1.9875 H   0  0  0  0  0
   -4.6151   -3.0002    0.3553 H   0  0  0  0  0
   -2.9453   -9.9597   -7.0309 H   0  0  0  0  0
   -5.4415  -10.7914   -8.4046 H   0  0  0  0  0
   -5.7292   -8.3844   -8.1737 H   0  0  0  0  0
   -4.1334   -8.1157   -8.9169 H   0  0  0  0  0
   -5.4510   -8.8368   -9.8734 H   0  0  0  0  0
   -5.0725  -11.1036  -10.7969 H   0  0  0  0  0
   -2.5611  -12.2724  -11.4479 H   0  0  0  0  0
   -4.5753  -12.7238  -12.7836 H   0  0  0  0  0
   -4.6134  -11.0325  -13.3394 H   0  0  0  0  0
   -3.2803  -12.1033  -13.8367 H   0  0  0  0  0
   -0.6976  -11.6415  -12.5525 H   0  0  0  0  0
    0.1805   -8.9117  -12.2317 H   0  0  0  0  0
    1.8058  -10.7216  -12.4038 H   0  0  0  0  0
    1.3160  -11.0223  -14.0893 H   0  0  0  0  0
    2.0851   -9.4782  -13.6475 H   0  0  0  0  0
   -0.4443   -7.1801  -13.3819 H   0  0  0  0  0
   -1.9980   -7.3635  -15.8521 H   0  0  0  0  0
   -1.7993   -4.8910  -15.8168 H   0  0  0  0  0
   -0.7223   -5.0640  -14.3522 H   0  0  0  0  0
   -2.5448   -5.9914  -13.1036 H   0  0  0  0  0
   -3.6015   -5.9561  -14.5391 H   0  0  0  0  0
   -3.2526   -3.4754  -14.6447 H   0  0  0  0  0
   -2.4012   -3.6020  -13.0510 H   0  0  0  0  0
   -4.4164   -4.4589  -12.0365 H   0  0  0  0  0
   -5.2638   -4.3824  -13.6166 H   0  0  0  0  0
   -5.7627   -2.4617  -12.2369 H   0  0  0  0  0
   -4.1474   -2.0643  -12.1376 H   0  0  0  0  0
   -4.9343   -1.9933  -13.6048 H   0  0  0  0  0
   -1.2302   -7.0986  -17.7591 H   0  0  0  0  0
  2  1  1  0  0  0
  3  2  1  0  0  0
  2  5  1  0  0  0
  3  4  2  0  0  0
  6  3  1  0  0  0
  7  6  1  0  0  0
  8  7  1  0  0  0
  7 10  1  0  0  0
  8  9  2  0  0  0
 14  8  1  0  0  0
 10 11  1  0  0  0
 10 12  1  0  0  0
 13 15  2  0  0  0
 16 13  1  0  0  0
 13 26  1  0  0  0
 16 14  1  0  0  0
 17 16  1  0  0  0
 20 17  1  0  0  0
 19 18  1  0  0  0
 18 20  1  0  0  0
 21 19  1  0  0  0
 25 21  1  0  0  0
 24 22  1  0  0  0
 25 23  2  0  0  0
 24 25  1  0  0  0
 26 27  1  0  0  0
 27 28  1  0  0  0
 27 30  1  0  0  0
 28 29  2  0  0  0
 28 31  1  0  0  0
 31 32  1  0  0  0
 32 33  1  0  0  0
 32 35  1  0  0  0
 33 34  2  0  0  0
 33 36  1  0  0  0
 36 37  1  0  0  0
 37 38  1  0  0  0
 37 40  1  0  0  0
 38 39  2  0  0  0
 38 41  1  0  0  0
 41 42  1  0  0  0
 42 43  1  0  0  0
 42 45  1  0  0  0
 43 44  2  0  0  0
 45 46  1  0  0  0
 46 47  1  0  0  0
 47 48  1  0  0  0
 48 49  1  0  0  0
 43 50  1  0  0  0
  1 51  1  0  0  0
  1 52  1  0  0  0
  1 53  1  0  0  0
  2 54  1  0  0  0
  5 55  1  0  0  0
  5 56  1  0  0  0
  5 57  1  0  0  0
  6 58  1  0  0  0
  7 59  1  0  0  0
 10 60  1  0  0  0
 11 61  1  0  0  0
 12 62  1  0  0  0
 12 63  1  0  0  0
 12 64  1  0  0  0
 14 65  1  0  0  0
 16 66  1  0  0  0
 17 67  1  0  0  0
 17 68  1  0  0  0
 18 69  1  0  0  0
 18 70  1  0  0  0
 19 71  1  0  0  0
 19 72  1  0  0  0
 20 73  1  0  0  0
 20 74  1  0  0  0
 21 75  1  0  0  0
 22 76  1  0  0  0
 22 77  1  0  0  0
 22 78  1  0  0  0
 24 79  1  0  0  0
 24 80  1  0  0  0
 26 81  1  0  0  0
 27 82  1  0  0  0
 30 83  1  0  0  0
 30 84  1  0  0  0
 30 85  1  0  0  0
 31 86  1  0  0  0
 32 87  1  0  0  0
 35 88  1  0  0  0
 35 89  1  0  0  0
 35 90  1  0  0  0
 36 91  1  0  0  0
 37 92  1  0  0  0
 40 93  1  0  0  0
 40 94  1  0  0  0
 40 95  1  0  0  0
 41 96  1  0  0  0
 42 97  1  0  0  0
 45 98  1  0  0  0
 45 99  1  0  0  0
 46100  1  0  0  0
 46101  1  0  0  0
 47102  1  0  0  0
 47103  1  0  0  0
 48104  1  0  0  0
 48105  1  0  0  0
 49106  1  0  0  0
 49107  1  0  0  0
 49108  1  0  0  0
 50109  1  0  0  0
M  END
$$$$
