### 
### Created by X-TOOL on Mon Sep 10 21:13:02 2018
### 

@<TRIPOS>MOLECULE
3muk_ligand
  108   107     1     0     0
SMALL
GAST_HUCK


@<TRIPOS>ATOM
      1 N           2.5900  -15.0600   -3.2660 N.4       1 ALA         0.2377
      2 CA          1.1340  -14.7870   -3.4420 C.3       1 ALA         0.0621
      3 C           0.9060  -13.4100   -4.0020 C.2       1 ALA         0.2265
      4 O           1.6780  -12.5430   -3.7750 O.2       1 ALA        -0.3907
      5 CB          0.3900  -14.8920   -2.0940 C.3       1 ALA        -0.0040
      6 N          -0.2540  -13.1540   -4.6200 N.am      1 THR        -0.2586
      7 CA         -0.5860  -11.7890   -4.9730 C.3       1 THR         0.1566
      8 C          -2.0990  -11.6010   -4.8790 C.2       1 THR         0.2065
      9 O          -2.8560  -12.5920   -4.8580 O.2       1 THR        -0.3943
     10 CB         -0.1320  -11.4490   -6.4400 C.3       1 THR         0.0924
     11 OG1        -0.7710  -12.3530   -7.3540 O.3       1 THR        -0.3874
     12 CG2         1.4030  -11.5190   -6.6370 C.3       1 THR        -0.0346
     13 C          -4.6930  -10.1530   -5.9940 C.2       1 PRK         0.2039
     14 N          -2.5230  -10.3430   -4.8630 N.am      1 PRK        -0.2637
     15 O          -5.9670  -10.2800   -5.9850 O.2       1 PRK        -0.3944
     16 CA         -3.9440  -10.0260   -4.6850 C.3       1 PRK         0.1310
     17 CB         -4.1130   -8.5980   -4.1340 C.3       1 PRK        -0.0123
     18 CD         -4.1390   -7.2640   -2.0160 C.3       1 PRK        -0.0325
     19 CE         -3.6040   -7.1770   -0.5820 C.3       1 PRK         0.0309
     20 CG         -3.5180   -8.4410   -2.7340 C.3       1 PRK        -0.0470
     21 NZ         -4.3710   -6.0920    0.0640 N.am      1 PRK        -0.2870
     22 CAA        -5.9540   -4.2420    1.4050 C.3       1 PRK        -0.0482
     23 OAD        -2.5500   -4.8380    0.2390 O.2       1 PRK        -0.3971
     24 CAF        -4.5620   -3.8250    1.0660 C.3       1 PRK         0.0344
     25 CAL        -3.7760   -4.9520    0.4290 C.2       1 PRK         0.1757
     26 N          -3.9560  -10.0720   -7.1100 N.am      1 ALA        -0.2640
     27 CA         -4.5680  -10.1410   -8.4490 C.3       1 ALA         0.1282
     28 C          -3.5810  -10.7210   -9.4490 C.2       1 ALA         0.2036
     29 O          -2.3900  -10.8390   -9.1320 O.2       1 ALA        -0.3944
     30 CB         -5.0000   -8.7760   -8.8830 C.3       1 ALA        -0.0244
     31 N          -4.0630  -11.0750  -10.6540 N.am      1 ALA        -0.2640
     32 CA         -3.1600  -11.4260  -11.7840 C.3       1 ALA         0.1282
     33 C          -2.1620  -10.2780  -12.1410 C.2       1 ALA         0.2036
     34 O          -2.4620   -9.0620  -12.0030 O.2       1 ALA        -0.3944
     35 CB         -3.9670  -11.8530  -13.0280 C.3       1 ALA        -0.0244
     36 N          -0.9530  -10.6540  -12.5550 N.am      1 ARG        -0.2640
     37 CA          0.0080   -9.6520  -13.0130 C.3       1 ARG         0.1282
     38 C          -0.6020   -9.0030  -14.2730 C.2       1 ARG         0.2031
     39 O          -0.9900   -9.7130  -15.2290 O.2       1 ARG        -0.3944
     40 CB          1.4100  -10.2650  -13.3110 C.3       1 ARG        -0.0244
     41 N          -0.6950   -7.6660  -14.2430 N.am      1 LYS        -0.2695
     42 CA         -1.1420   -6.8670  -15.3950 C.3       1 LYS         0.0944
     43 C          -0.0260   -6.7560  -16.4380 C.2       1 LYS         0.0601
     44 O           1.1450   -6.5080  -16.0880 O.co2     1 LYS        -0.5666
     45 CB         -1.5530   -5.4720  -14.9280 C.3       1 LYS        -0.0177
     46 CG         -2.7740   -5.4630  -14.0290 C.3       1 LYS        -0.0446
     47 CD         -3.1660   -4.0210  -13.7050 C.3       1 LYS        -0.0125
     48 CE         -4.4950   -3.9330  -12.9880 C.3       1 LYS        -0.0354
     49 NZ         -4.8650   -2.4960  -12.7200 N.4       1 LYS         0.2185
     50 H           3.0602  -14.9851   -4.1680 H         1 ALA         0.2015
     51 H           2.9862  -14.3799   -2.6172 H         1 ALA         0.2015
     52 H           2.7156  -16.0009   -2.8928 H         1 ALA         0.2015
     53 H           0.7496  -15.5333   -4.1372 H         1 ALA         0.1095
     54 H           0.7776  -14.1398   -1.4070 H         1 ALA         0.0310
     55 H          -0.6751  -14.7250   -2.2544 H         1 ALA         0.0310
     56 H           0.5438  -15.8851   -1.6719 H         1 ALA         0.0310
     57 H          -0.8982  -13.9136   -4.8402 H         1 THR         0.1885
     58 H          -0.0658  -11.1252   -4.2824 H         1 THR         0.0826
     59 H          -0.4293  -10.4187   -6.6353 H         1 THR         0.0639
     60 H          -1.7236  -12.2595   -7.2814 H         1 THR         0.2101
     61 H           1.7467  -12.5354   -6.4451 H         1 THR         0.0257
     62 H           1.6498  -11.2378   -7.6608 H         1 THR         0.0257
     63 H           1.8887  -10.8328   -5.9433 H         1 THR         0.0257
     64 H          -1.8500   -9.5850   -4.9763 H         1 PRK         0.1883
     65 H          -4.3576  -10.7384   -3.9712 H         1 PRK         0.0800
     66 H          -5.1799   -8.3832   -4.0737 H         1 PRK         0.0312
     67 H          -3.5898   -7.9139   -4.8021 H         1 PRK         0.0312
     68 H          -3.8853   -6.3471   -2.5479 H         1 PRK         0.0285
     69 H          -5.2208   -7.3944   -1.9861 H         1 PRK         0.0285
     70 H          -2.5338   -6.9708   -0.5682 H         1 PRK         0.0520
     71 H          -3.7280   -8.1218   -0.0528 H         1 PRK         0.0520
     72 H          -2.4451   -8.2712   -2.8249 H         1 PRK         0.0268
     73 H          -3.7191   -9.3473   -2.1628 H         1 PRK         0.0268
     74 H          -5.3692   -6.2146    0.2340 H         1 PRK         0.1850
     75 H          -6.4713   -4.5495    0.4962 H         1 PRK         0.0254
     76 H          -5.9215   -5.0760    2.1060 H         1 PRK         0.0254
     77 H          -6.4824   -3.4040    1.8595 H         1 PRK         0.0254
     78 H          -4.0577   -3.5340    1.9875 H         1 PRK         0.0500
     79 H          -4.6151   -3.0002    0.3553 H         1 PRK         0.0500
     80 H          -2.9453   -9.9597   -7.0309 H         1 ALA         0.1883
     81 H          -5.4415  -10.7914   -8.4046 H         1 ALA         0.0797
     82 H          -5.7292   -8.3844   -8.1737 H         1 ALA         0.0277
     83 H          -4.1334   -8.1157   -8.9169 H         1 ALA         0.0277
     84 H          -5.4510   -8.8368   -9.8734 H         1 ALA         0.0277
     85 H          -5.0725  -11.1036  -10.7969 H         1 ALA         0.1883
     86 H          -2.5611  -12.2724  -11.4479 H         1 ALA         0.0797
     87 H          -4.5753  -12.7238  -12.7836 H         1 ALA         0.0277
     88 H          -4.6134  -11.0325  -13.3394 H         1 ALA         0.0277
     89 H          -3.2803  -12.1033  -13.8367 H         1 ALA         0.0277
     90 H          -0.6976  -11.6415  -12.5525 H         1 ARG         0.1883
     91 H           0.1805   -8.9117  -12.2317 H         1 ARG         0.0797
     92 H           1.8058  -10.7216  -12.4038 H         1 ARG         0.0277
     93 H           1.3160  -11.0223  -14.0893 H         1 ARG         0.0277
     94 H           2.0851   -9.4782  -13.6475 H         1 ARG         0.0277
     95 H          -0.4443   -7.1801  -13.3819 H         1 LYS         0.1875
     96 H          -1.9980   -7.3635  -15.8521 H         1 LYS         0.0726
     97 O1         -0.2930   -6.9165  -17.6589 O.co2     1 LYS        -0.5666
     98 H          -1.7993   -4.8910  -15.8168 H         1 LYS         0.0305
     99 H          -0.7223   -5.0640  -14.3522 H         1 LYS         0.0305
    100 H          -2.5448   -5.9914  -13.1036 H         1 LYS         0.0269
    101 H          -3.6015   -5.9561  -14.5391 H         1 LYS         0.0269
    102 H          -3.2526   -3.4754  -14.6447 H         1 LYS         0.0317
    103 H          -2.4012   -3.6020  -13.0510 H         1 LYS         0.0317
    104 H          -4.4164   -4.4589  -12.0365 H         1 LYS         0.0813
    105 H          -5.2638   -4.3824  -13.6166 H         1 LYS         0.0813
    106 H          -5.7627   -2.4617  -12.2369 H         1 LYS         0.1994
    107 H          -4.1474   -2.0643  -12.1376 H         1 LYS         0.1994
    108 H          -4.9343   -1.9933  -13.6048 H         1 LYS         0.1994
@<TRIPOS>BOND
     1    2    1 1  
     2    3    2 1  
     3    2    5 1  
     4    3    4 2  
     5    6    3 am 
     6    7    6 1  
     7    8    7 1  
     8    7   10 1  
     9    8    9 2  
    10   14    8 am 
    11   10   11 1  
    12   10   12 1  
    13   13   15 2  
    14   16   13 1  
    15   13   26 am 
    16   16   14 1  
    17   17   16 1  
    18   20   17 1  
    19   19   18 1  
    20   18   20 1  
    21   21   19 1  
    22   25   21 am 
    23   24   22 1  
    24   25   23 2  
    25   24   25 1  
    26   26   27 1  
    27   27   28 1  
    28   27   30 1  
    29   28   29 2  
    30   28   31 am 
    31   31   32 1  
    32   32   33 1  
    33   32   35 1  
    34   33   34 2  
    35   33   36 am 
    36   36   37 1  
    37   37   38 1  
    38   37   40 1  
    39   38   39 2  
    40   38   41 am 
    41   41   42 1  
    42   42   43 1  
    43   42   45 1  
    44   43   44 ar 
    45   45   46 1  
    46   46   47 1  
    47   47   48 1  
    48   48   49 1  
    49    1   50 1  
    50    1   51 1  
    51    1   52 1  
    52    2   53 1  
    53    5   54 1  
    54    5   55 1  
    55    5   56 1  
    56    6   57 1  
    57    7   58 1  
    58   10   59 1  
    59   11   60 1  
    60   12   61 1  
    61   12   62 1  
    62   12   63 1  
    63   14   64 1  
    64   16   65 1  
    65   17   66 1  
    66   17   67 1  
    67   18   68 1  
    68   18   69 1  
    69   19   70 1  
    70   19   71 1  
    71   20   72 1  
    72   20   73 1  
    73   21   74 1  
    74   22   75 1  
    75   22   76 1  
    76   22   77 1  
    77   24   78 1  
    78   24   79 1  
    79   26   80 1  
    80   27   81 1  
    81   30   82 1  
    82   30   83 1  
    83   30   84 1  
    84   31   85 1  
    85   32   86 1  
    86   35   87 1  
    87   35   88 1  
    88   35   89 1  
    89   36   90 1  
    90   37   91 1  
    91   40   92 1  
    92   40   93 1  
    93   40   94 1  
    94   41   95 1  
    95   42   96 1  
    96   43   97 ar 
    97   45   98 1  
    98   45   99 1  
    99   46  100 1  
   100   46  101 1  
   101   47  102 1  
   102   47  103 1  
   103   48  104 1  
   104   48  105 1  
   105   49  106 1  
   106   49  107 1  
   107   49  108 1  
@<TRIPOS>SUBSTRUCTURE
     1 ALA         1

