4wri_ligand
  -I-interpret- 

125131  0  0  0  0  0  0  0  0999 V2000
   25.6640   50.7130   57.6940 C   0  0  0  0  0
   25.6820   51.4380   59.0610 C   0  0  0  0  0
   26.8620   52.4070   59.1180 C   0  0  0  0  0
   26.8430   53.4740   58.0010 C   0  0  0  0  0
   28.1110   54.3120   58.0850 C   0  0  0  0  0
   28.0310   55.5090   57.1350 C   0  0  0  0  0
   26.7220   56.2980   57.3790 C   0  0  0  0  0
   25.5470   55.3420   57.2640 C   0  0  0  0  0
   24.2740   56.0370   57.6540 C   0  0  0  0  0
   23.1670   55.9000   56.9020 C   0  0  0  0  0
   23.1370   55.1240   55.6230 C   0  0  0  0  0
   24.3820   54.1930   55.5810 C   0  0  0  0  0
   24.6130   53.6760   54.1520 C   0  0  0  0  0
   25.8250   52.7130   54.1600 C   0  0  0  0  0
   26.9260   53.0500   53.4870 C   0  0  0  0  0
   28.0890   52.1000   53.5580 C   0  0  0  0  0
   28.7090   51.6770   52.2000 C   0  0  0  0  0
   30.2270   51.6740   52.4570 C   0  0  0  0  0
   30.3480   52.1920   53.9270 C   0  0  0  0  0
   31.5630   52.9890   54.1570 C   0  0  0  0  0
   31.6030   53.4090   55.6510 C   0  0  0  0  0
   31.5500   52.1290   56.4810 C   0  0  0  0  0
   30.2770   51.3460   56.1190 C   0  0  0  0  0
   30.2500   50.0070   56.9280 C   0  0  0  0  0
   30.3830   50.4240   58.3750 C   0  0  0  0  0
   31.5000   51.3450   58.7140 C   0  0  0  0  0
   32.8610   50.6140   58.7140 C   0  0  0  0  0
   32.8760   49.6110   59.8780 C   0  0  0  0  0
   34.2340   48.9350   60.1280 C   0  0  0  0  0
   33.9930   47.8790   61.2480 C   0  0  0  0  0
   33.6410   48.4200   62.6130 C   0  0  0  0  0
   33.6030   47.3160   63.6700 C   0  0  0  0  0
   34.7730   46.3420   63.5930 C   0  0  0  0  0
   35.0620   45.9940   62.1240 C   0  0  0  0  0
   36.4520   45.2670   62.0850 C   0  0  0  0  0
   36.6160   44.6730   60.6910 C   0  0  0  0  0
   35.4450   43.7750   60.4130 C   0  0  0  0  0
   34.1250   44.4960   60.5060 C   0  0  0  0  0
   34.5780   49.5440   63.0550 C   0  0  0  0  0
   34.6760   48.1990   58.8550 C   0  0  0  0  0
   29.5750   50.0160   59.3150 C   0  0  0  0  0
   23.4160   52.8790   53.6680 C   0  0  0  0  0
   21.9410   56.6160   57.4010 C   0  0  0  0  0
   25.7740   50.4160   60.1850 C   0  0  0  0  0
   26.7150   50.1480   57.3880 O   0  0  0  0  0
   24.6410   50.7470   57.0050 O   0  0  0  0  0
   24.4720   52.1680   59.2200 O   0  0  0  0  0
   25.6840   54.2940   58.2050 O   0  0  0  0  0
   26.6450   57.3790   56.4140 O   0  0  0  0  0
   25.5130   54.8620   55.9200 O   0  0  0  0  0
   29.1180   52.8310   54.1540 O   0  0  0  0  0
   30.3330   50.9930   54.7460 O   0  0  0  0  0
   31.5460   52.5000   57.8620 O   0  0  0  0  0
   29.1010   49.3090   56.6350 O   0  0  0  0  0
   33.8710   51.5900   58.9150 O   0  0  0  0  0
   35.2190   47.0920   61.3150 O   0  0  0  0  0
   33.9990   45.1240   61.8310 O   0  0  0  0  0
   27.7721   51.8203   58.9932 H   0  0  0  0  0
   26.8071   52.9321   60.0716 H   0  0  0  0  0
   26.8031   53.0116   57.0147 H   0  0  0  0  0
   28.9623   53.6930   57.8016 H   0  0  0  0  0
   28.2247   54.6784   59.1053 H   0  0  0  0  0
   28.0446   55.1496   56.1061 H   0  0  0  0  0
   28.8823   56.1654   57.3154 H   0  0  0  0  0
   26.7007   56.7358   58.3770 H   0  0  0  0  0
   24.2469   56.6556   58.5510 H   0  0  0  0  0
   23.1541   55.8065   54.7733 H   0  0  0  0  0
   22.2254   54.5287   55.5704 H   0  0  0  0  0
   24.1853   53.3819   56.2821 H   0  0  0  0  0
   24.7783   54.5340   53.5004 H   0  0  0  0  0
   25.7792   51.7721   54.7083 H   0  0  0  0  0
   26.9802   53.9737   52.9108 H   0  0  0  0  0
   27.7210   51.2052   54.0601 H   0  0  0  0  0
   28.4314   52.3560   51.3938 H   0  0  0  0  0
   28.3474   50.7030   51.8703 H   0  0  0  0  0
   30.7724   52.2967   51.7479 H   0  0  0  0  0
   30.6719   50.6880   52.3231 H   0  0  0  0  0
   31.5519   53.8750   53.5222 H   0  0  0  0  0
   32.4463   52.3986   53.9133 H   0  0  0  0  0
   30.7598   54.0570   55.8904 H   0  0  0  0  0
   32.5121   53.9699   55.8679 H   0  0  0  0  0
   32.4111   51.4920   56.2791 H   0  0  0  0  0
   29.4028   51.9583   56.3404 H   0  0  0  0  0
   31.0560   49.3175   56.6771 H   0  0  0  0  0
   31.3008   51.6999   59.7252 H   0  0  0  0  0
   33.0272   50.0839   57.7762 H   0  0  0  0  0
   32.1705   48.8200   59.6237 H   0  0  0  0  0
   32.6294   50.1698   60.7808 H   0  0  0  0  0
   34.9958   49.6636   60.4051 H   0  0  0  0  0
   33.1078   47.3024   60.9796 H   0  0  0  0  0
   32.6398   48.8407   62.5198 H   0  0  0  0  0
   32.6923   46.7407   63.5035 H   0  0  0  0  0
   33.6500   47.8008   64.6451 H   0  0  0  0  0
   34.5215   45.4316   64.1371 H   0  0  0  0  0
   35.6562   46.8027   64.0356 H   0  0  0  0  0
   36.4951   44.4837   62.8418 H   0  0  0  0  0
   37.2572   45.9701   62.2981 H   0  0  0  0  0
   37.5429   44.1020   60.6372 H   0  0  0  0  0
   36.6564   45.4710   59.9496 H   0  0  0  0  0
   35.4466   42.9816   61.1604 H   0  0  0  0  0
   35.5482   43.3951   59.3966 H   0  0  0  0  0
   33.3121   43.7840   60.3635 H   0  0  0  0  0
   34.0764   45.2644   59.7345 H   0  0  0  0  0
   35.6004   49.1683   63.0950 H   0  0  0  0  0
   34.5192   50.3660   62.3415 H   0  0  0  0  0
   34.2801   49.8964   64.0425 H   0  0  0  0  0
   33.9335   47.4438   58.5972 H   0  0  0  0  0
   34.7683   48.9137   58.0372 H   0  0  0  0  0
   35.6388   47.7189   59.0301 H   0  0  0  0  0
   28.7545   49.3404   59.0731 H   0  0  0  0  0
   29.7206   50.3508   60.3420 H   0  0  0  0  0
   23.2568   52.0273   54.3293 H   0  0  0  0  0
   22.5311   53.5154   53.6736 H   0  0  0  0  0
   23.6033   52.5238   52.6547 H   0  0  0  0  0
   21.6832   56.2444   58.3927 H   0  0  0  0  0
   22.1428   57.6859   57.4536 H   0  0  0  0  0
   21.1121   56.4345   56.7168 H   0  0  0  0  0
   25.7714   50.9323   61.1449 H   0  0  0  0  0
   24.9196   49.7412   60.1316 H   0  0  0  0  0
   26.6966   49.8451   60.0806 H   0  0  0  0  0
   23.9635   51.2484   57.4646 H   0  0  0  0  0
   24.3975   52.8185   58.5180 H   0  0  0  0  0
   27.4040   57.9570   56.5214 H   0  0  0  0  0
   29.0901   48.4889   57.1340 H   0  0  0  0  0
   34.7308   51.1629   58.9196 H   0  0  0  0  0
  1  2  1  0  0  0
  1 45  2  0  0  0
  1 46  1  0  0  0
  2  3  1  0  0  0
  2 44  1  0  0  0
  2 47  1  0  0  0
  3  4  1  0  0  0
  4  5  1  0  0  0
  4 48  1  0  0  0
  5  6  1  0  0  0
  6  7  1  0  0  0
  7  8  1  0  0  0
  7 49  1  0  0  0
  8  9  1  0  0  0
  8 48  1  0  0  0
  8 50  1  0  0  0
  9 10  2  0  0  0
 10 11  1  0  0  0
 10 43  1  0  0  0
 11 12  1  0  0  0
 12 13  1  0  0  0
 12 50  1  0  0  0
 13 14  1  0  0  0
 13 42  1  0  0  0
 14 15  2  0  0  0
 15 16  1  0  0  0
 16 17  1  0  0  0
 16 51  1  0  0  0
 17 18  1  0  0  0
 18 19  1  0  0  0
 19 20  1  0  0  0
 19 51  1  0  0  0
 19 52  1  0  0  0
 20 21  1  0  0  0
 21 22  1  0  0  0
 22 23  1  0  0  0
 22 53  1  0  0  0
 23 24  1  0  0  0
 23 52  1  0  0  0
 24 25  1  0  0  0
 24 54  1  0  0  0
 25 26  1  0  0  0
 25 41  2  0  0  0
 26 27  1  0  0  0
 26 53  1  0  0  0
 27 28  1  0  0  0
 27 55  1  0  0  0
 28 29  1  0  0  0
 29 30  1  0  0  0
 29 40  1  0  0  0
 30 31  1  0  0  0
 30 56  1  0  0  0
 31 32  1  0  0  0
 31 39  1  0  0  0
 32 33  1  0  0  0
 33 34  1  0  0  0
 34 35  1  0  0  0
 34 56  1  0  0  0
 34 57  1  0  0  0
 35 36  1  0  0  0
 36 37  1  0  0  0
 37 38  1  0  0  0
 38 57  1  0  0  0
  3 58  1  0  0  0
  3 59  1  0  0  0
  4 60  1  0  0  0
  5 61  1  0  0  0
  5 62  1  0  0  0
  6 63  1  0  0  0
  6 64  1  0  0  0
  7 65  1  0  0  0
  9 66  1  0  0  0
 11 67  1  0  0  0
 11 68  1  0  0  0
 12 69  1  0  0  0
 13 70  1  0  0  0
 14 71  1  0  0  0
 15 72  1  0  0  0
 16 73  1  0  0  0
 17 74  1  0  0  0
 17 75  1  0  0  0
 18 76  1  0  0  0
 18 77  1  0  0  0
 20 78  1  0  0  0
 20 79  1  0  0  0
 21 80  1  0  0  0
 21 81  1  0  0  0
 22 82  1  0  0  0
 23 83  1  0  0  0
 24 84  1  0  0  0
 26 85  1  0  0  0
 27 86  1  0  0  0
 28 87  1  0  0  0
 28 88  1  0  0  0
 29 89  1  0  0  0
 30 90  1  0  0  0
 31 91  1  0  0  0
 32 92  1  0  0  0
 32 93  1  0  0  0
 33 94  1  0  0  0
 33 95  1  0  0  0
 35 96  1  0  0  0
 35 97  1  0  0  0
 36 98  1  0  0  0
 36 99  1  0  0  0
 37100  1  0  0  0
 37101  1  0  0  0
 38102  1  0  0  0
 38103  1  0  0  0
 39104  1  0  0  0
 39105  1  0  0  0
 39106  1  0  0  0
 40107  1  0  0  0
 40108  1  0  0  0
 40109  1  0  0  0
 41110  1  0  0  0
 41111  1  0  0  0
 42112  1  0  0  0
 42113  1  0  0  0
 42114  1  0  0  0
 43115  1  0  0  0
 43116  1  0  0  0
 43117  1  0  0  0
 44118  1  0  0  0
 44119  1  0  0  0
 44120  1  0  0  0
 46121  1  0  0  0
 47122  1  0  0  0
 49123  1  0  0  0
 54124  1  0  0  0
 55125  1  0  0  0
M  END
$$$$
