### 
### Created by X-TOOL on Mon Sep 10 21:13:05 2018
### 

@<TRIPOS>MOLECULE
3qzt_ligand
  111   111     1     0     0
SMALL
GAST_HUCK


@<TRIPOS>ATOM
      1 N          31.4150    6.8570    2.8280 N.4       1 GLY         0.2357
      2 CA         30.7300    6.9350    4.1630 C.3       1 GLY         0.0545
      3 C          31.0360    5.7440    5.0680 C.2       1 GLY         0.2236
      4 O          30.3880    4.6900    4.9700 O.2       1 GLY        -0.3910
      5 N          32.0310    5.9020    5.9470 N.am      1 ALA        -0.2615
      6 CA         32.4270    4.8180    6.8640 C.3       1 ALA         0.1283
      7 C          32.2500    5.2360    8.3200 C.2       1 ALA         0.2036
      8 O          32.9080    6.1730    8.8090 O.2       1 ALA        -0.3944
      9 CB         33.8620    4.3540    6.5910 C.3       1 ALA        -0.0244
     10 OH         24.2460    2.9210   10.3480 O.2       1 ALY        -0.3974
     11 CH         24.2960    2.9790   11.5420 C.2       1 ALY         0.1729
     12 CH3        23.1190    2.5100   12.3450 C.3       1 ALY         0.0256
     13 NZ         25.3540    3.4330   12.1960 N.am      1 ALY        -0.2872
     14 CE         26.4660    3.9480   11.3730 C.3       1 ALY         0.0309
     15 CD         27.8380    4.2130   11.9160 C.3       1 ALY        -0.0325
     16 CG         28.6590    4.5010   10.6710 C.3       1 ALY        -0.0470
     17 CB         29.9930    3.8210   10.7660 C.3       1 ALY        -0.0123
     18 CA         31.0410    4.8390   10.3940 C.3       1 ALY         0.1310
     19 N          31.3480    4.5500    9.0030 N.am      1 ALY        -0.2637
     20 C          32.1600    4.5960   11.3270 C.2       1 ALY         0.2039
     21 O          32.9900    3.7020   11.1180 O.2       1 ALY        -0.3944
     22 N          32.1940    5.3610   12.3990 N.am      1 ARG        -0.2637
     23 CA         33.1730    5.1040   13.4340 C.3       1 ARG         0.1311
     24 C          32.9130    3.7000   14.0170 C.2       1 ARG         0.2040
     25 O          31.7700    3.3210   14.2530 O.2       1 ARG        -0.3944
     26 CB         33.0720    6.1560   14.5340 C.3       1 ARG        -0.0092
     27 CG         34.1430    6.0330   15.6430 C.3       1 ARG        -0.0156
     28 CD         33.7290    6.8780   16.8790 C.3       1 ARG         0.0627
     29 NE         33.5110    8.2700   16.4810 N.pl3     1 ARG        -0.2723
     30 CZ         34.4980    9.1360   16.2590 C.cat     1 ARG         0.2882
     31 NH1        35.7620    8.7540   16.4620 N.pl3     1 ARG        -0.2849
     32 NH2        34.2330   10.3750   15.8660 N.pl3     1 ARG        -0.2849
     33 N          34.0110    2.9580   14.1830 N.am      1 HIS        -0.2625
     34 CA         34.1780    1.7270   14.9810 C.3       1 HIS         0.1369
     35 C          33.5260    1.8220   16.3800 C.2       1 HIS         0.2048
     36 O          33.6670    2.8490   17.0610 O.2       1 HIS        -0.3943
     37 CB         35.7050    1.5570   15.1360 C.3       1 HIS         0.0145
     38 CG         36.1870    0.1410   15.2760 C.2       1 HIS        -0.0027
     39 ND1        37.2830   -0.1890   16.0510 N.2       1 HIS        -0.3252
     40 CD2        35.7540   -1.0200   14.7250 C.2       1 HIS         0.0291
     41 CE1        37.4930   -1.4930   15.9850 C.2       1 HIS         0.0907
     42 NE2        36.5780   -2.0210   15.1890 N.pl3     1 HIS        -0.2752
     43 N          32.8460    0.7400   16.7990 N.am      1 ARG        -0.2694
     44 CA         32.1020    0.6270   18.0780 C.3       1 ARG         0.0945
     45 C          32.8760    1.1120   19.3110 C.2       1 ARG         0.0601
     46 O          34.0520    0.8040   19.4580 O.co2     1 ARG        -0.5666
     47 CB         31.6300   -0.8230   18.3110 C.3       1 ARG        -0.0148
     48 CG         30.7030   -0.9960   19.5410 C.3       1 ARG        -0.0162
     49 CD         30.2550   -2.4480   19.6980 C.3       1 ARG         0.0627
     50 NE         29.3000   -2.6230   20.7950 N.pl3     1 ARG        -0.2723
     51 CZ         28.7290   -3.7820   21.1050 C.cat     1 ARG         0.2882
     52 NH1        29.0090   -4.8780   20.4030 N.pl3     1 ARG        -0.2849
     53 NH2        27.8760   -3.8510   22.1200 N.pl3     1 ARG        -0.2849
     54 H          31.1711    7.6777    2.2736 H         1 GLY         0.2012
     55 H          32.4251    6.8268    2.9667 H         1 GLY         0.2012
     56 H          31.1122    6.0137    2.3406 H         1 GLY         0.2012
     57 H          29.6551    6.9443    3.9822 H         1 GLY         0.1061
     58 H          31.0895    7.8326    4.6662 H         1 GLY         0.1061
     59 H          32.5271    6.7925    5.9839 H         1 ALA         0.1884
     60 H          31.7661    3.9712    6.6789 H         1 ALA         0.0797
     61 H          34.5531    5.1690    6.8059 H         1 ALA         0.0277
     62 H          34.0943    3.5012    7.2289 H         1 ALA         0.0277
     63 H          33.9555    4.0629    5.5448 H         1 ALA         0.0277
     64 H          22.2415    3.0995   12.0794 H         1 ALY         0.0467
     65 H          22.9302    1.4582   12.1303 H         1 ALY         0.0467
     66 H          23.3330    2.6327   13.4067 H         1 ALY         0.0467
     67 H          25.3983    3.4272   13.2150 H         1 ALY         0.1850
     68 H          26.1196    4.9407   11.0854 H         1 ALY         0.0520
     69 H          26.6359    3.1429   10.6581 H         1 ALY         0.0520
     70 H          28.2299    3.3744   12.4916 H         1 ALY         0.0285
     71 H          27.8544    5.0376   12.6287 H         1 ALY         0.0285
     72 H          28.8108    5.5768   10.5830 H         1 ALY         0.0268
     73 H          28.1272    4.1259    9.7966 H         1 ALY         0.0268
     74 H          30.0353    2.9640   10.0938 H         1 ALY         0.0312
     75 H          30.1622    3.4480   11.7761 H         1 ALY         0.0312
     76 H          30.7640    5.8902   10.4736 H         1 ALY         0.0800
     77 H          30.8504    3.7914    8.5368 H         1 ALY         0.1883
     78 H          31.5331    6.1314   12.4994 H         1 ARG         0.1883
     79 H          34.1764    5.1515   13.0109 H         1 ARG         0.0800
     80 H          32.1018    6.0235   15.0127 H         1 ARG         0.0313
     81 H          33.2153    7.1269   14.0597 H         1 ARG         0.0313
     82 H          35.0966    6.3987   15.2622 H         1 ARG         0.0301
     83 H          34.2347    4.9877   15.9381 H         1 ARG         0.0301
     84 H          34.5232    6.8375   17.6244 H         1 ARG         0.0689
     85 H          32.8066    6.4751   17.2972 H         1 ARG         0.0689
     86 H          32.5506    8.5942   16.3676 H         1 ARG         0.2642
     87 H          35.9632    7.8073   16.7839 H         1 ARG         0.2615
     88 H          36.5258    9.4091   16.2951 H         1 ARG         0.2615
     89 H          33.2664   10.6716   15.7313 H         1 ARG         0.2615
     90 H          34.9958   11.0311   15.6985 H         1 ARG         0.2615
     91 H          34.8443    3.2849   13.6939 H         1 HIS         0.1885
     92 H          33.6923    0.8872   14.4840 H         1 HIS         0.0817
     93 H          35.9829    2.0719   16.0556 H         1 HIS         0.0420
     94 H          36.1552    1.9495   14.2242 H         1 HIS         0.0420
     95 H          34.9120   -1.1386   14.0430 H         1 HIS         0.0729
     96 H          38.2844   -2.0390   16.4985 H         1 HIS         0.1199
     97 H          36.4959   -3.0107   14.9562 H         1 HIS         0.2361
     98 H          32.8412   -0.0738   16.1841 H         1 ARG         0.1875
     99 H          31.2483    1.2952   17.9649 H         1 ARG         0.0726
    100 O          32.3007    1.8281   20.1734 O.co2     1 ARG        -0.5666
    101 H          32.5195   -1.4272   18.4897 H         1 ARG         0.0307
    102 H          31.0590   -1.1217   17.4319 H         1 ARG         0.0307
    103 H          29.8195   -0.3734   19.4001 H         1 ARG         0.0301
    104 H          31.2543   -0.7042   20.4349 H         1 ARG         0.0301
    105 H          31.1361   -3.0505   19.9189 H         1 ARG         0.0689
    106 H          29.7648   -2.7513   18.7729 H         1 ARG         0.0689
    107 H          29.0587   -1.8053   21.3549 H         1 ARG         0.2642
    108 H          29.6646   -4.8304   19.6230 H         1 ARG         0.2615
    109 H          28.5679   -5.7653   20.6451 H         1 ARG         0.2615
    110 H          27.6591   -3.0144   22.6617 H         1 ARG         0.2615
    111 H          27.4376   -4.7406   22.3581 H         1 ARG         0.2615
@<TRIPOS>BOND
     1    2    1 1  
     2    3    2 1  
     3    3    4 2  
     4    5    3 am 
     5    6    5 1  
     6    7    6 1  
     7    6    9 1  
     8    7    8 2  
     9   19    7 am 
    10   11   10 2  
    11   11   12 1  
    12   13   11 am 
    13   14   13 1  
    14   15   14 1  
    15   16   15 1  
    16   17   16 1  
    17   18   17 1  
    18   18   19 1  
    19   18   20 1  
    20   20   21 2  
    21   20   22 am 
    22   22   23 1  
    23   23   24 1  
    24   23   26 1  
    25   24   25 2  
    26   24   33 am 
    27   26   27 1  
    28   27   28 1  
    29   28   29 1  
    30   29   30 ar 
    31   30   31 ar 
    32   30   32 ar 
    33   33   34 1  
    34   34   35 1  
    35   34   37 1  
    36   35   36 2  
    37   35   43 am 
    38   37   38 1  
    39   38   39 1  
    40   38   40 2  
    41   39   41 2  
    42   40   42 1  
    43   41   42 1  
    44   43   44 1  
    45   44   45 1  
    46   44   47 1  
    47   45   46 ar 
    48   47   48 1  
    49   48   49 1  
    50   49   50 1  
    51   50   51 ar 
    52   51   52 ar 
    53   51   53 ar 
    54    1   54 1  
    55    1   55 1  
    56    1   56 1  
    57    2   57 1  
    58    2   58 1  
    59    5   59 1  
    60    6   60 1  
    61    9   61 1  
    62    9   62 1  
    63    9   63 1  
    64   12   64 1  
    65   12   65 1  
    66   12   66 1  
    67   13   67 1  
    68   14   68 1  
    69   14   69 1  
    70   15   70 1  
    71   15   71 1  
    72   16   72 1  
    73   16   73 1  
    74   17   74 1  
    75   17   75 1  
    76   18   76 1  
    77   19   77 1  
    78   22   78 1  
    79   23   79 1  
    80   26   80 1  
    81   26   81 1  
    82   27   82 1  
    83   27   83 1  
    84   28   84 1  
    85   28   85 1  
    86   29   86 1  
    87   31   87 1  
    88   31   88 1  
    89   32   89 1  
    90   32   90 1  
    91   33   91 1  
    92   34   92 1  
    93   37   93 1  
    94   37   94 1  
    95   40   95 1  
    96   41   96 1  
    97   42   97 1  
    98   43   98 1  
    99   44   99 1  
   100   45  100 ar 
   101   47  101 1  
   102   47  102 1  
   103   48  103 1  
   104   48  104 1  
   105   49  105 1  
   106   49  106 1  
   107   50  107 1  
   108   52  108 1  
   109   52  109 1  
   110   53  110 1  
   111   53  111 1  
@<TRIPOS>SUBSTRUCTURE
     1 GLY         1

