3qzt_ligand
  -I-interpret- 

109109  0  0  0  0  0  0  0  0999 V2000
   31.4150    6.8570    2.8280 N   0  3  0  0  0
   30.7300    6.9350    4.1630 C   0  0  0  0  0
   31.0360    5.7440    5.0680 C   0  0  0  0  0
   30.3880    4.6900    4.9700 O   0  0  0  0  0
   32.0310    5.9020    5.9470 N   0  0  0  0  0
   32.4270    4.8180    6.8640 C   0  0  0  0  0
   32.2500    5.2360    8.3200 C   0  0  0  0  0
   32.9080    6.1730    8.8090 O   0  0  0  0  0
   33.8620    4.3540    6.5910 C   0  0  0  0  0
   24.2460    2.9210   10.3480 O   0  0  0  0  0
   24.2960    2.9790   11.5420 C   0  0  0  0  0
   23.1190    2.5100   12.3450 C   0  0  0  0  0
   25.3540    3.4330   12.1960 N   0  0  0  0  0
   26.4660    3.9480   11.3730 C   0  0  0  0  0
   27.8380    4.2130   11.9160 C   0  0  0  0  0
   28.6590    4.5010   10.6710 C   0  0  0  0  0
   29.9930    3.8210   10.7660 C   0  0  0  0  0
   31.0410    4.8390   10.3940 C   0  0  0  0  0
   31.3480    4.5500    9.0030 N   0  0  0  0  0
   32.1600    4.5960   11.3270 C   0  0  0  0  0
   32.9900    3.7020   11.1180 O   0  0  0  0  0
   32.1940    5.3610   12.3990 N   0  0  0  0  0
   33.1730    5.1040   13.4340 C   0  0  0  0  0
   32.9130    3.7000   14.0170 C   0  0  0  0  0
   31.7700    3.3210   14.2530 O   0  0  0  0  0
   33.0720    6.1560   14.5340 C   0  0  0  0  0
   34.1430    6.0330   15.6430 C   0  0  0  0  0
   33.7290    6.8780   16.8790 C   0  0  0  0  0
   33.5110    8.2700   16.4810 N   0  0  0  0  0
   34.4980    9.1360   16.2590 C   0  0  0  0  0
   35.7620    8.7540   16.4620 N   0  0  0  0  0
   34.2330   10.3750   15.8660 N   0  0  0  0  0
   34.0110    2.9580   14.1830 N   0  0  0  0  0
   34.1780    1.7270   14.9810 C   0  0  0  0  0
   33.5260    1.8220   16.3800 C   0  0  0  0  0
   33.6670    2.8490   17.0610 O   0  0  0  0  0
   35.7050    1.5570   15.1360 C   0  0  0  0  0
   36.1870    0.1410   15.2760 C   0  0  0  0  0
   37.2830   -0.1890   16.0510 N   0  0  0  0  0
   35.7540   -1.0200   14.7250 C   0  0  0  0  0
   37.4930   -1.4930   15.9850 C   0  0  0  0  0
   36.5780   -2.0210   15.1890 N   0  0  0  0  0
   32.8460    0.7400   16.7990 N   0  0  0  0  0
   32.1020    0.6270   18.0780 C   0  0  0  0  0
   32.8760    1.1120   19.3110 C   0  0  0  0  0
   34.0520    0.8040   19.4580 O   0  0  0  0  0
   31.6300   -0.8230   18.3110 C   0  0  0  0  0
   30.7030   -0.9960   19.5410 C   0  0  0  0  0
   30.2550   -2.4480   19.6980 C   0  0  0  0  0
   29.3000   -2.6230   20.7950 N   0  0  0  0  0
   28.7290   -3.7820   21.1050 C   0  0  0  0  0
   29.0090   -4.8780   20.4030 N   0  0  0  0  0
   27.8760   -3.8510   22.1200 N   0  0  0  0  0
   32.3007    1.8281   20.1734 O   0  0  0  0  0
   31.1711    7.6777    2.2736 H   0  0  0  0  0
   32.4251    6.8268    2.9667 H   0  0  0  0  0
   31.1122    6.0137    2.3406 H   0  0  0  0  0
   29.6551    6.9443    3.9822 H   0  0  0  0  0
   31.0895    7.8326    4.6662 H   0  0  0  0  0
   32.5271    6.7925    5.9839 H   0  0  0  0  0
   31.7661    3.9712    6.6789 H   0  0  0  0  0
   34.5531    5.1690    6.8059 H   0  0  0  0  0
   34.0943    3.5012    7.2289 H   0  0  0  0  0
   33.9555    4.0629    5.5448 H   0  0  0  0  0
   22.2415    3.0995   12.0794 H   0  0  0  0  0
   22.9302    1.4582   12.1303 H   0  0  0  0  0
   23.3330    2.6327   13.4067 H   0  0  0  0  0
   25.3983    3.4272   13.2150 H   0  0  0  0  0
   26.1196    4.9407   11.0854 H   0  0  0  0  0
   26.6359    3.1429   10.6581 H   0  0  0  0  0
   28.2299    3.3744   12.4916 H   0  0  0  0  0
   27.8544    5.0376   12.6287 H   0  0  0  0  0
   28.8108    5.5768   10.5830 H   0  0  0  0  0
   28.1272    4.1259    9.7966 H   0  0  0  0  0
   30.0353    2.9640   10.0938 H   0  0  0  0  0
   30.1622    3.4480   11.7761 H   0  0  0  0  0
   30.7640    5.8902   10.4736 H   0  0  0  0  0
   30.8504    3.7914    8.5368 H   0  0  0  0  0
   31.5331    6.1314   12.4994 H   0  0  0  0  0
   34.1764    5.1515   13.0109 H   0  0  0  0  0
   32.1018    6.0235   15.0127 H   0  0  0  0  0
   33.2153    7.1269   14.0597 H   0  0  0  0  0
   35.0966    6.3987   15.2622 H   0  0  0  0  0
   34.2347    4.9877   15.9381 H   0  0  0  0  0
   34.5232    6.8375   17.6244 H   0  0  0  0  0
   32.8066    6.4751   17.2972 H   0  0  0  0  0
   32.5506    8.5942   16.3676 H   0  0  0  0  0
   36.5245    9.4153   16.3148 H   0  0  0  0  0
   35.9645    7.8011   16.7642 H   0  0  0  0  0
   33.2664   10.6716   15.7313 H   0  0  0  0  0
   34.8443    3.2849   13.6939 H   0  0  0  0  0
   33.6923    0.8872   14.4840 H   0  0  0  0  0
   35.9829    2.0719   16.0556 H   0  0  0  0  0
   36.1552    1.9495   14.2242 H   0  0  0  0  0
   34.9120   -1.1386   14.0430 H   0  0  0  0  0
   38.2844   -2.0390   16.4985 H   0  0  0  0  0
   32.8412   -0.0738   16.1841 H   0  0  0  0  0
   31.2483    1.2952   17.9649 H   0  0  0  0  0
   32.5195   -1.4272   18.4897 H   0  0  0  0  0
   31.0590   -1.1217   17.4319 H   0  0  0  0  0
   29.8195   -0.3734   19.4001 H   0  0  0  0  0
   31.2543   -0.7042   20.4349 H   0  0  0  0  0
   31.1361   -3.0505   19.9189 H   0  0  0  0  0
   29.7648   -2.7513   18.7729 H   0  0  0  0  0
   29.0587   -1.8053   21.3549 H   0  0  0  0  0
   28.5688   -5.7655   20.6459 H   0  0  0  0  0
   29.6637   -4.8302   19.6223 H   0  0  0  0  0
   27.6591   -3.0144   22.6617 H   0  0  0  0  0
   31.3897    1.9756   19.9090 H   0  0  0  0  0
  2  1  1  0  0  0
  3  2  1  0  0  0
  3  4  2  0  0  0
  5  3  1  0  0  0
  6  5  1  0  0  0
  7  6  1  0  0  0
  6  9  1  0  0  0
  7  8  2  0  0  0
 19  7  1  0  0  0
 11 10  2  0  0  0
 11 12  1  0  0  0
 13 11  1  0  0  0
 14 13  1  0  0  0
 15 14  1  0  0  0
 16 15  1  0  0  0
 17 16  1  0  0  0
 18 17  1  0  0  0
 18 19  1  0  0  0
 18 20  1  0  0  0
 20 21  2  0  0  0
 20 22  1  0  0  0
 22 23  1  0  0  0
 23 24  1  0  0  0
 23 26  1  0  0  0
 24 25  2  0  0  0
 24 33  1  0  0  0
 26 27  1  0  0  0
 27 28  1  0  0  0
 28 29  1  0  0  0
 29 30  1  0  0  0
 30 31  1  0  0  0
 30 32  2  0  0  0
 33 34  1  0  0  0
 34 35  1  0  0  0
 34 37  1  0  0  0
 35 36  2  0  0  0
 35 43  1  0  0  0
 37 38  1  0  0  0
 38 39  4  0  0  0
 38 40  4  0  0  0
 39 41  4  0  0  0
 40 42  4  0  0  0
 41 42  4  0  0  0
 43 44  1  0  0  0
 44 45  1  0  0  0
 44 47  1  0  0  0
 45 46  2  0  0  0
 47 48  1  0  0  0
 48 49  1  0  0  0
 49 50  1  0  0  0
 50 51  1  0  0  0
 51 52  1  0  0  0
 51 53  2  0  0  0
 45 54  1  0  0  0
  1 55  1  0  0  0
  1 56  1  0  0  0
  1 57  1  0  0  0
  2 58  1  0  0  0
  2 59  1  0  0  0
  5 60  1  0  0  0
  6 61  1  0  0  0
  9 62  1  0  0  0
  9 63  1  0  0  0
  9 64  1  0  0  0
 12 65  1  0  0  0
 12 66  1  0  0  0
 12 67  1  0  0  0
 13 68  1  0  0  0
 14 69  1  0  0  0
 14 70  1  0  0  0
 15 71  1  0  0  0
 15 72  1  0  0  0
 16 73  1  0  0  0
 16 74  1  0  0  0
 17 75  1  0  0  0
 17 76  1  0  0  0
 18 77  1  0  0  0
 19 78  1  0  0  0
 22 79  1  0  0  0
 23 80  1  0  0  0
 26 81  1  0  0  0
 26 82  1  0  0  0
 27 83  1  0  0  0
 27 84  1  0  0  0
 28 85  1  0  0  0
 28 86  1  0  0  0
 29 87  1  0  0  0
 31 88  1  0  0  0
 31 89  1  0  0  0
 32 90  1  0  0  0
 33 91  1  0  0  0
 34 92  1  0  0  0
 37 93  1  0  0  0
 37 94  1  0  0  0
 40 95  1  0  0  0
 41 96  1  0  0  0
 43 97  1  0  0  0
 44 98  1  0  0  0
 47 99  1  0  0  0
 47100  1  0  0  0
 48101  1  0  0  0
 48102  1  0  0  0
 49103  1  0  0  0
 49104  1  0  0  0
 50105  1  0  0  0
 52106  1  0  0  0
 52107  1  0  0  0
 53108  1  0  0  0
 54109  1  0  0  0
M  END
$$$$
