3rlb_ligand
  -I-interpret- 

 35 36  0  0  0  0  0  0  0  0999 V2000
   37.0650  -25.2360   41.7910 C   0  0  0  0  0
   36.2090  -21.6970   44.8310 N   0  0  0  0  0
   33.0740  -21.9020   48.7990 C   0  0  0  0  0
   28.9960  -20.3490   48.8980 O   0  0  0  0  0
   29.4930  -20.4020   47.5680 C   0  0  0  0  0
   30.9120  -19.8960   47.6810 C   0  0  0  0  0
   32.9770  -21.9370   45.1150 C   0  0  0  0  0
   31.7250  -20.7330   45.1530 S   0  0  0  0  0
   31.8150  -20.7910   46.8750 C   0  0  0  0  0
   32.7970  -21.7330   47.3410 C   0  0  0  0  0
   33.4340  -22.3470   46.3040 N   0  3  0  0  0
   34.4990  -23.3380   46.5240 C   0  0  0  0  0
   35.9570  -22.9830   44.5080 C   0  0  0  0  0
   36.5220  -23.4680   43.4040 N   0  0  0  0  0
   36.3950  -24.7750   43.0550 C   0  0  0  0  0
   35.6320  -25.6160   43.7720 N   0  0  0  0  0
   35.0210  -25.1710   44.8890 C   0  0  0  0  0
   35.1580  -23.8310   45.2780 C   0  0  0  0  0
   36.6664  -24.6761   40.9450 H   0  0  0  0  0
   38.1389  -25.0656   41.8675 H   0  0  0  0  0
   36.8739  -26.2994   41.6471 H   0  0  0  0  0
   36.8148  -21.1312   44.2366 H   0  0  0  0  0
   35.7937  -21.2909   45.6695 H   0  0  0  0  0
   33.4155  -20.9541   49.2149 H   0  0  0  0  0
   32.1619  -22.2155   49.3069 H   0  0  0  0  0
   33.8460  -22.6593   48.9355 H   0  0  0  0  0
   28.0874  -20.6586   48.9114 H   0  0  0  0  0
   28.8959  -19.8012   46.8820 H   0  0  0  0  0
   29.4476  -21.4085   47.1522 H   0  0  0  0  0
   31.2234  -19.9030   48.7255 H   0  0  0  0  0
   30.9705  -18.8758   47.3016 H   0  0  0  0  0
   33.3671  -22.3348   44.1782 H   0  0  0  0  0
   34.0358  -24.2015   47.0014 H   0  0  0  0  0
   35.2702  -22.8488   47.1191 H   0  0  0  0  0
   34.4202  -25.8537   45.4898 H   0  0  0  0  0
 15  1  1  0  0  0
 13  2  1  0  0  0
 10  3  1  0  0  0
  5  4  1  0  0  0
  6  5  1  0  0  0
  9  6  1  0  0  0
  7  8  4  0  0  0
 11  7  4  0  0  0
  9  8  4  0  0  0
 10  9  4  0  0  0
 11 10  4  0  0  0
 12 11  1  0  0  0
 18 12  1  0  0  0
 14 13  4  0  0  0
 13 18  4  0  0  0
 14 15  4  0  0  0
 15 16  4  0  0  0
 16 17  4  0  0  0
 17 18  4  0  0  0
  1 19  1  0  0  0
  1 20  1  0  0  0
  1 21  1  0  0  0
  2 22  1  0  0  0
  2 23  1  0  0  0
  3 24  1  0  0  0
  3 25  1  0  0  0
  3 26  1  0  0  0
  4 27  1  0  0  0
  5 28  1  0  0  0
  5 29  1  0  0  0
  6 30  1  0  0  0
  6 31  1  0  0  0
  7 32  1  0  0  0
 12 33  1  0  0  0
 12 34  1  0  0  0
 17 35  1  0  0  0
M  END
$$$$
