### 
### Created by X-TOOL on Wed Jan  1 15:39:36 2020
### 

@<TRIPOS>MOLECULE
5wxo_ligand
  163   164     1     0     0
SMALL
GAST_HUCK


@<TRIPOS>ATOM
      1 N           1.1780  -27.7940  -16.8580 N.4       1 CYS         0.2385
      2 CA          0.2950  -26.7940  -16.1450 C.3       1 CYS         0.0749
      3 C          -1.1220  -27.3010  -15.8870 C.2       1 CYS         0.2276
      4 O          -1.7560  -26.8910  -14.9220 O.2       1 CYS        -0.3907
      5 CB          0.2120  -25.4660  -16.9160 C.3       1 CYS         0.0643
      6 SG          1.7070  -24.4320  -16.8500 S.3       1 CYS        -0.0848
      7 N          -1.6020  -28.1890  -16.7540 N.am      1 SER        -0.2588
      8 CA         -2.9460  -28.7710  -16.6490 C.3       1 SER         0.1540
      9 C          -3.0390  -29.8820  -15.5900 C.2       1 SER         0.2062
     10 O          -4.1380  -30.3840  -15.2780 O.2       1 SER        -0.3943
     11 CB         -3.3460  -29.3360  -18.0040 C.3       1 SER         0.0843
     12 OG         -2.4540  -30.3700  -18.3820 O.3       1 SER        -0.3903
     13 N          -1.8760  -30.2290  -15.0170 N.am      1 ALA        -0.2639
     14 CA         -1.6880  -31.3500  -14.0820 C.3       1 ALA         0.1282
     15 C          -0.9330  -30.9940  -12.7830 C.2       1 ALA         0.2036
     16 O          -0.4660  -29.8790  -12.6040 O.2       1 ALA        -0.3944
     17 CB         -0.9830  -32.5170  -14.7690 C.3       1 ALA        -0.0244
     18 N          -0.6010  -32.0520  -12.0210 N.am      1 HRG        -0.2637
     19 CA          0.2020  -31.9690  -10.8060 C.3       1 HRG         0.1310
     20 CB          0.1560  -33.2720  -10.0360 C.3       1 HRG        -0.0123
     21 CG         -1.1840  -34.8230   -8.6910 C.3       1 HRG        -0.0196
     22 CG'        -1.2350  -33.7010   -9.7030 C.3       1 HRG        -0.0457
     23 CD         -0.6280  -36.1430   -9.1580 C.3       1 HRG         0.0625
     24 NE         -1.1510  -36.6540  -10.3670 N.pl3     1 HRG        -0.2723
     25 CZ         -1.5000  -37.8960  -10.5030 C.cat     1 HRG         0.2882
     26 NH1        -1.4630  -38.4470  -11.6190 N.pl3     1 HRG        -0.2849
     27 NH2        -1.8990  -38.5410   -9.4400 N.pl3     1 HRG        -0.2849
     28 C           1.7070  -31.7210  -10.9240 C.2       1 HRG         0.2037
     29 O           2.3870  -32.4090  -11.7020 O.2       1 HRG        -0.3944
     30 N           2.1790  -30.7640  -10.1100 N.am      1 GLY        -0.2664
     31 CA          3.4940  -30.2490   -9.8800 C.3       1 GLY         0.1201
     32 C           3.7570  -28.7950  -10.2140 C.2       1 GLY         0.2007
     33 O           4.7270  -28.2350   -9.7950 O.2       1 GLY        -0.3947
     34 N           2.9080  -28.1840  -10.9190 N.am      1 LEU        -0.2640
     35 CA          3.0120  -26.7750  -11.2960 C.3       1 LEU         0.1312
     36 C           1.9180  -25.8990  -10.6930 C.2       1 LEU         0.2039
     37 O           1.7900  -24.7310  -11.1170 O.2       1 LEU        -0.3944
     38 CB          3.0200  -26.6150  -12.8390 C.3       1 LEU        -0.0101
     39 CG          4.0940  -27.4300  -13.5660 C.3       1 LEU        -0.0425
     40 CD1         4.0160  -27.1360  -15.0660 C.3       1 LEU        -0.0625
     41 CD2         5.4950  -27.1420  -13.0530 C.3       1 LEU        -0.0625
     42 N           1.1560  -26.4100   -9.7000 N.am      1 GLU        -0.2636
     43 CA          0.1540  -25.5470   -9.0570 C.3       1 GLU         0.1325
     44 C           0.8520  -24.2600   -8.5500 C.2       1 GLU         0.2041
     45 O           1.9840  -24.3340   -8.0780 O.2       1 GLU        -0.3944
     46 CB         -0.6550  -26.1950   -7.9020 C.3       1 GLU        -0.0008
     47 CG         -0.3810  -27.6050   -7.3360 C.3       1 GLU         0.0044
     48 CD         -0.6800  -28.7820   -8.2430 C.2       1 GLU         0.0350
     49 OE1        -1.6160  -29.6960   -8.0230 O.co2     1 GLU        -0.5690
     50 OE2         0.1710  -28.8850   -9.0760 O.co2     1 GLU        -0.5690
     51 N           0.1790  -23.1090   -8.6540 N.am      1 ASN        -0.2616
     52 CA          0.7250  -21.8370   -8.1390 C.3       1 ASN         0.1476
     53 C           2.1100  -21.4630   -8.7460 C.2       1 ASN         0.2063
     54 O           3.0020  -21.0060   -8.0090 O.2       1 ASN        -0.3942
     55 CB          0.8160  -21.9060   -6.5920 C.3       1 ASN         0.0773
     56 CG          1.0570  -20.5420   -5.9260 C.2       1 ASN         0.1780
     57 OD1         0.5110  -19.5350   -6.3670 O.2       1 ASN        -0.3970
     58 ND2         1.7950  -20.5310   -4.7840 N.am      1 ASN        -0.3007
     59 N           2.2940  -21.6570  -10.0640 N.am      1 HIS        -0.2623
     60 CA          3.5720  -21.3040  -10.7090 C.3       1 HIS         0.1369
     61 C           3.3190  -20.1500  -11.6800 C.2       1 HIS         0.2054
     62 O           2.3190  -20.1500  -12.4260 O.2       1 HIS        -0.3942
     63 CB          4.1800  -22.4930  -11.4820 C.3       1 HIS         0.0145
     64 CG          4.9090  -23.4860  -10.6230 C.2       1 HIS        -0.0027
     65 ND1         6.2190  -23.8550  -10.8580 N.2       1 HIS        -0.3252
     66 CD2         4.5170  -24.1890   -9.5300 C.2       1 HIS         0.0291
     67 CE1         6.6020  -24.7350   -9.9490 C.2       1 HIS         0.0907
     68 NE2         5.5880  -24.9680   -9.1380 N.pl3     1 HIS        -0.2752
     69 N           4.2330  -19.1810  -11.6760 N.am      1 ALA        -0.2639
     70 CA          4.0560  -17.9490  -12.4390 C.3       1 ALA         0.1282
     71 C           3.9100  -18.2180  -13.9420 C.2       1 ALA         0.2036
     72 O           3.1430  -17.5380  -14.6240 O.2       1 ALA        -0.3944
     73 CB          5.2170  -16.9920  -12.1610 C.3       1 ALA        -0.0244
     74 N           4.6150  -19.2370  -14.4350 N.am      1 ALA        -0.2640
     75 CA          4.5790  -19.6180  -15.8550 C.3       1 ALA         0.1282
     76 C           3.3660  -20.4750  -16.2710 C.2       1 ALA         0.2031
     77 O           3.3680  -21.0490  -17.3690 O.2       1 ALA        -0.3944
     78 CB          5.8660  -20.3400  -16.2250 C.3       1 ALA        -0.0244
     79 N           2.3460  -20.5700  -15.4100 N.am      1 CYS        -0.2687
     80 CA          1.0890  -21.2790  -15.7330 C.3       1 CYS         0.1041
     81 C          -0.1150  -20.3420  -15.7520 C.2       1 CYS         0.0609
     82 O          -0.0820  -19.2190  -15.2420 O.co2     1 CYS        -0.5666
     83 CB          0.8230  -22.4150  -14.7330 C.3       1 CYS         0.0388
     84 SG          1.9080  -23.8580  -14.9000 S.3       1 CYS        -0.0887
     85 OXT        -1.1620  -20.7100  -16.2810 O.co2     1 CYS        -0.5666
     86 H1          2.0938  -27.3958  -16.9951 H         1 CYS         0.2015
     87 H2          0.7733  -28.0218  -17.7526 H         1 CYS         0.2015
     88 H3          1.2554  -28.6308  -16.3014 H         1 CYS         0.2015
     89 H4          0.7590  -26.5924  -15.1683 H         1 CYS         0.1107
     90 H5         -0.6226  -24.8831  -16.4994 H         1 CYS         0.0466
     91 H6          0.0062  -25.6983  -17.9713 H         1 CYS         0.0466
     92 H7         -1.0187  -28.4740  -17.5146 H         1 SER         0.1885
     93 H8         -3.6483  -27.9711  -16.3717 H         1 SER         0.0823
     94 H9         -3.3138  -28.5344  -18.7565 H         1 SER         0.0606
     95 H10        -4.3671  -29.7405  -17.9427 H         1 SER         0.0606
     96 H11        -2.7121  -30.7157  -19.2283 H         1 SER         0.2097
     97 H12        -1.0710  -29.6808  -15.2440 H         1 ALA         0.1883
     98 H13        -2.6924  -31.6888  -13.7882 H         1 ALA         0.0797
     99 H14        -0.8540  -33.3410  -14.0518 H         1 ALA         0.0277
    100 H15         0.0024  -32.1884  -15.1309 H         1 ALA         0.0277
    101 H16        -1.5894  -32.8626  -15.6192 H         1 ALA         0.0277
    102 H17        -0.9258  -32.9538  -12.3061 H         1 HRG         0.1883
    103 H18        -0.2321  -31.1606  -10.1993 H         1 HRG         0.0800
    104 H19         0.7183  -33.1461   -9.0990 H         1 HRG         0.0312
    105 H20         0.6290  -34.0565  -10.6449 H         1 HRG         0.0312
    106 H21        -2.2117  -35.0012   -8.3416 H         1 HRG         0.0299
    107 H22        -0.5643  -34.4817   -7.8487 H         1 HRG         0.0299
    108 H23        -1.7395  -34.0520  -10.6153 H         1 HRG         0.0269
    109 H24        -1.7905  -32.8506   -9.2808 H         1 HRG         0.0269
    110 H25        -0.8219  -36.8852   -8.3697 H         1 HRG         0.0689
    111 H26         0.4575  -36.0214   -9.2882 H         1 HRG         0.0689
    112 H27        -1.2591  -36.0173  -11.1694 H         1 HRG         0.2642
    113 H28        -1.7423  -39.4337  -11.7157 H         1 HRG         0.2615
    114 H29        -1.1531  -37.9161  -12.4454 H         1 HRG         0.2615
    115 H30        -1.9214  -38.0649   -8.5269 H         1 HRG         0.2615
    116 H31        -2.1913  -39.5258   -9.5146 H         1 HRG         0.2615
    117 H32         1.4727  -30.3244   -9.5551 H         1 GLY         0.1881
    118 H33         4.1913  -30.8534  -10.4787 H         1 GLY         0.0763
    119 H34         3.7160  -30.3843   -8.8112 H         1 GLY         0.0763
    120 H35         2.1120  -28.6965  -11.2410 H         1 LEU         0.1883
    121 H36         3.9753  -26.4072  -10.9130 H         1 LEU         0.0800
    122 H37         3.1818  -25.5521  -13.0716 H         1 LEU         0.0315
    123 H38         2.0369  -26.9283  -13.2202 H         1 LEU         0.0315
    124 H39         3.8844  -28.4975  -13.4034 H         1 LEU         0.0298
    125 H40         4.7852  -27.7185  -15.5943 H         1 LEU         0.0232
    126 H41         4.1857  -26.0630  -15.2387 H         1 LEU         0.0232
    127 H42         3.0211  -27.4153  -15.4432 H         1 LEU         0.0232
    128 H43         5.5419  -27.3559  -11.9750 H         1 LEU         0.0232
    129 H44         5.7392  -26.0838  -13.2278 H         1 LEU         0.0232
    130 H45         6.2181  -27.7779  -13.5847 H         1 LEU         0.0232
    131 H46         1.2719  -27.3593   -9.4076 H         1 GLU         0.1883
    132 H47        -0.5713  -25.2621   -9.8334 H         1 GLU         0.0801
    133 H48        -1.7007  -26.2096   -8.2431 H         1 GLU         0.0330
    134 H49        -0.5573  -25.5079   -7.0486 H         1 GLU         0.0330
    135 H50        -0.9913  -27.7224   -6.4284 H         1 GLU         0.0433
    136 H51         0.6852  -27.6540   -7.0698 H         1 GLU         0.0433
    137 H52        -0.7195  -23.1096   -9.0930 H         1 ASN         0.1885
    138 H53         0.0194  -21.0373   -8.4084 H         1 ASN         0.0826
    139 H54         1.6460  -22.5756   -6.3224 H         1 ASN         0.0551
    140 H55        -0.1280  -22.3187   -6.2066 H         1 ASN         0.0551
    141 H56         1.9780  -19.6668   -4.3152 H         1 ASN         0.1814
    142 H57         2.1547  -21.3871   -4.4129 H         1 ASN         0.1814
    143 H58         1.5545  -22.0457  -10.6136 H         1 HIS         0.1885
    144 H59         4.2852  -20.9834   -9.9354 H         1 HIS         0.0817
    145 H60         4.8882  -22.0948  -12.2235 H         1 HIS         0.0420
    146 H61         3.3646  -23.0196  -11.9995 H         1 HIS         0.0420
    147 H62         3.5398  -24.1466   -9.0512 H         1 HIS         0.0729
    148 H63         7.5886  -25.1909   -9.8811 H         1 HIS         0.1199
    149 H64         5.5940  -25.6231   -8.3432 H         1 HIS         0.2361
    150 H65         5.0650  -19.3010  -11.1343 H         1 ALA         0.1883
    151 H66         3.1282  -17.4688  -12.0945 H         1 ALA         0.0797
    152 H67         5.0761  -16.0669  -12.7393 H         1 ALA         0.0277
    153 H68         6.1636  -17.4683  -12.4562 H         1 ALA         0.0277
    154 H69         5.2460  -16.7527  -11.0878 H         1 ALA         0.0277
    155 H70         5.1929  -19.7647  -13.8124 H         1 ALA         0.1883
    156 H71         4.5302  -18.6861  -16.4374 H         1 ALA         0.0797
    157 H72         5.8351  -20.6232  -17.2875 H         1 ALA         0.0277
    158 H73         5.9697  -21.2443  -15.6074 H         1 ALA         0.0277
    159 H74         6.7237  -19.6746  -16.0477 H         1 ALA         0.0277
    160 H75         2.4376  -20.1435  -14.5101 H         1 CYS         0.1876
    161 H76         1.1987  -21.7173  -16.7359 H         1 CYS         0.0734
    162 H77        -0.2152  -22.7521  -14.8687 H         1 CYS         0.0425
    163 H78         0.9476  -22.0110  -13.7175 H         1 CYS         0.0425
@<TRIPOS>BOND
     1    1    2 1  
     2    2    3 1  
     3    2    5 1  
     4    3    4 2  
     5    3    7 am 
     6    5    6 1  
     7    6   84 1  
     8    7    8 1  
     9    8    9 1  
    10    8   11 1  
    11    9   10 2  
    12    9   13 am 
    13   11   12 1  
    14   13   14 1  
    15   14   15 1  
    16   14   17 1  
    17   15   16 2  
    18   15   18 am 
    19   18   19 1  
    20   19   20 1  
    21   19   28 1  
    22   20   22 1  
    23   22   21 1  
    24   21   23 1  
    25   23   24 1  
    26   24   25 ar 
    27   25   26 ar 
    28   25   27 ar 
    29   28   29 2  
    30   28   30 am 
    31   30   31 1  
    32   31   32 1  
    33   32   33 2  
    34   32   34 am 
    35   34   35 1  
    36   35   36 1  
    37   35   38 1  
    38   36   37 2  
    39   36   42 am 
    40   38   39 1  
    41   39   40 1  
    42   39   41 1  
    43   42   43 1  
    44   43   44 1  
    45   43   46 1  
    46   44   45 2  
    47   44   51 am 
    48   46   47 1  
    49   47   48 1  
    50   48   49 ar 
    51   48   50 ar 
    52   51   52 1  
    53   52   53 1  
    54   52   55 1  
    55   53   54 2  
    56   53   59 am 
    57   55   56 1  
    58   56   57 2  
    59   56   58 am 
    60   59   60 1  
    61   60   61 1  
    62   60   63 1  
    63   61   62 2  
    64   61   69 am 
    65   63   64 1  
    66   64   65 1  
    67   64   66 2  
    68   65   67 2  
    69   66   68 1  
    70   67   68 1  
    71   69   70 1  
    72   70   71 1  
    73   70   73 1  
    74   71   72 2  
    75   71   74 am 
    76   74   75 1  
    77   75   76 1  
    78   75   78 1  
    79   76   77 2  
    80   76   79 am 
    81   79   80 1  
    82   80   81 1  
    83   80   83 1  
    84   81   82 ar 
    85   81   85 ar 
    86   83   84 1  
    87    1   86 1  
    88    1   87 1  
    89    1   88 1  
    90    2   89 1  
    91    5   90 1  
    92    5   91 1  
    93    7   92 1  
    94    8   93 1  
    95   11   94 1  
    96   11   95 1  
    97   12   96 1  
    98   13   97 1  
    99   14   98 1  
   100   17   99 1  
   101   17  100 1  
   102   17  101 1  
   103   18  102 1  
   104   19  103 1  
   105   20  104 1  
   106   20  105 1  
   107   21  106 1  
   108   21  107 1  
   109   22  108 1  
   110   22  109 1  
   111   23  110 1  
   112   23  111 1  
   113   24  112 1  
   114   26  113 1  
   115   26  114 1  
   116   27  115 1  
   117   27  116 1  
   118   30  117 1  
   119   31  118 1  
   120   31  119 1  
   121   34  120 1  
   122   35  121 1  
   123   38  122 1  
   124   38  123 1  
   125   39  124 1  
   126   40  125 1  
   127   40  126 1  
   128   40  127 1  
   129   41  128 1  
   130   41  129 1  
   131   41  130 1  
   132   42  131 1  
   133   43  132 1  
   134   46  133 1  
   135   46  134 1  
   136   47  135 1  
   137   47  136 1  
   138   51  137 1  
   139   52  138 1  
   140   55  139 1  
   141   55  140 1  
   142   58  141 1  
   143   58  142 1  
   144   59  143 1  
   145   60  144 1  
   146   63  145 1  
   147   63  146 1  
   148   66  147 1  
   149   67  148 1  
   150   68  149 1  
   151   69  150 1  
   152   70  151 1  
   153   73  152 1  
   154   73  153 1  
   155   73  154 1  
   156   74  155 1  
   157   75  156 1  
   158   78  157 1  
   159   78  158 1  
   160   78  159 1  
   161   79  160 1  
   162   80  161 1  
   163   83  162 1  
   164   83  163 1  
@<TRIPOS>SUBSTRUCTURE
     1 CYS         1

