5wxo_ligand
  -I-interpret- 

163164  0  0  0  0  0  0  0  0999 V2000
    1.1780  -27.7940  -16.8580 N   0  3  0  0  0
    0.2950  -26.7940  -16.1450 C   0  0  0  0  0
   -1.1220  -27.3010  -15.8870 C   0  0  0  0  0
   -1.7560  -26.8910  -14.9220 O   0  0  0  0  0
    0.2120  -25.4660  -16.9160 C   0  0  0  0  0
    1.7070  -24.4320  -16.8500 S   0  0  0  0  0
   -1.6020  -28.1890  -16.7540 N   0  0  0  0  0
   -2.9460  -28.7710  -16.6490 C   0  0  0  0  0
   -3.0390  -29.8820  -15.5900 C   0  0  0  0  0
   -4.1380  -30.3840  -15.2780 O   0  0  0  0  0
   -3.3460  -29.3360  -18.0040 C   0  0  0  0  0
   -2.4540  -30.3700  -18.3820 O   0  0  0  0  0
   -1.8760  -30.2290  -15.0170 N   0  0  0  0  0
   -1.6880  -31.3500  -14.0820 C   0  0  0  0  0
   -0.9330  -30.9940  -12.7830 C   0  0  0  0  0
   -0.4660  -29.8790  -12.6040 O   0  0  0  0  0
   -0.9830  -32.5170  -14.7690 C   0  0  0  0  0
   -0.6010  -32.0520  -12.0210 N   0  0  0  0  0
    0.2020  -31.9690  -10.8060 C   0  0  0  0  0
    0.1560  -33.2720  -10.0360 C   0  0  0  0  0
   -1.1840  -34.8230   -8.6910 C   0  0  0  0  0
   -1.2350  -33.7010   -9.7030 C   0  0  0  0  0
   -0.6280  -36.1430   -9.1580 C   0  0  0  0  0
   -1.1510  -36.6540  -10.3670 N   0  0  0  0  0
   -1.5000  -37.8960  -10.5030 C   0  0  0  0  0
   -1.4630  -38.4470  -11.6190 N   0  0  0  0  0
   -1.8990  -38.5410   -9.4400 N   0  0  0  0  0
    1.7070  -31.7210  -10.9240 C   0  0  0  0  0
    2.3870  -32.4090  -11.7020 O   0  0  0  0  0
    2.1790  -30.7640  -10.1100 N   0  0  0  0  0
    3.4940  -30.2490   -9.8800 C   0  0  0  0  0
    3.7570  -28.7950  -10.2140 C   0  0  0  0  0
    4.7270  -28.2350   -9.7950 O   0  0  0  0  0
    2.9080  -28.1840  -10.9190 N   0  0  0  0  0
    3.0120  -26.7750  -11.2960 C   0  0  0  0  0
    1.9180  -25.8990  -10.6930 C   0  0  0  0  0
    1.7900  -24.7310  -11.1170 O   0  0  0  0  0
    3.0200  -26.6150  -12.8390 C   0  0  0  0  0
    4.0940  -27.4300  -13.5660 C   0  0  0  0  0
    4.0160  -27.1360  -15.0660 C   0  0  0  0  0
    5.4950  -27.1420  -13.0530 C   0  0  0  0  0
    1.1560  -26.4100   -9.7000 N   0  0  0  0  0
    0.1540  -25.5470   -9.0570 C   0  0  0  0  0
    0.8520  -24.2600   -8.5500 C   0  0  0  0  0
    1.9840  -24.3340   -8.0780 O   0  0  0  0  0
   -0.6550  -26.1950   -7.9020 C   0  0  0  0  0
   -0.3810  -27.6050   -7.3360 C   0  0  0  0  0
   -0.6800  -28.7820   -8.2430 C   0  0  0  0  0
   -1.6160  -29.6960   -8.0230 O   0  0  0  0  0
    0.1710  -28.8850   -9.0760 O   0  0  0  0  0
    0.1790  -23.1090   -8.6540 N   0  0  0  0  0
    0.7250  -21.8370   -8.1390 C   0  0  0  0  0
    2.1100  -21.4630   -8.7460 C   0  0  0  0  0
    3.0020  -21.0060   -8.0090 O   0  0  0  0  0
    0.8160  -21.9060   -6.5920 C   0  0  0  0  0
    1.0570  -20.5420   -5.9260 C   0  0  0  0  0
    0.5110  -19.5350   -6.3670 O   0  0  0  0  0
    1.7950  -20.5310   -4.7840 N   0  0  0  0  0
    2.2940  -21.6570  -10.0640 N   0  0  0  0  0
    3.5720  -21.3040  -10.7090 C   0  0  0  0  0
    3.3190  -20.1500  -11.6800 C   0  0  0  0  0
    2.3190  -20.1500  -12.4260 O   0  0  0  0  0
    4.1800  -22.4930  -11.4820 C   0  0  0  0  0
    4.9090  -23.4860  -10.6230 C   0  0  0  0  0
    6.2190  -23.8550  -10.8580 N   0  0  0  0  0
    4.5170  -24.1890   -9.5300 C   0  0  0  0  0
    6.6020  -24.7350   -9.9490 C   0  0  0  0  0
    5.5880  -24.9680   -9.1380 N   0  0  0  0  0
    4.2330  -19.1810  -11.6760 N   0  0  0  0  0
    4.0560  -17.9490  -12.4390 C   0  0  0  0  0
    3.9100  -18.2180  -13.9420 C   0  0  0  0  0
    3.1430  -17.5380  -14.6240 O   0  0  0  0  0
    5.2170  -16.9920  -12.1610 C   0  0  0  0  0
    4.6150  -19.2370  -14.4350 N   0  0  0  0  0
    4.5790  -19.6180  -15.8550 C   0  0  0  0  0
    3.3660  -20.4750  -16.2710 C   0  0  0  0  0
    3.3680  -21.0490  -17.3690 O   0  0  0  0  0
    5.8660  -20.3400  -16.2250 C   0  0  0  0  0
    2.3460  -20.5700  -15.4100 N   0  0  0  0  0
    1.0890  -21.2790  -15.7330 C   0  0  0  0  0
   -0.1150  -20.3420  -15.7520 C   0  0  0  0  0
   -0.0820  -19.2190  -15.2420 O   0  0  0  0  0
    0.8230  -22.4150  -14.7330 C   0  0  0  0  0
    1.9080  -23.8580  -14.9000 S   0  0  0  0  0
   -1.1620  -20.7100  -16.2810 O   0  0  0  0  0
    1.2106  -28.6606  -16.3210 H   0  0  0  0  0
    0.7971  -27.9815  -17.7855 H   0  0  0  0  0
    2.1196  -27.4119  -16.9467 H   0  0  0  0  0
    0.7739  -26.6382  -15.1783 H   0  0  0  0  0
   -0.5878  -24.8871  -16.4542 H   0  0  0  0  0
    0.0571  -25.7232  -17.9638 H   0  0  0  0  0
   -1.0070  -28.4797  -17.5298 H   0  0  0  0  0
   -3.6218  -27.9747  -16.3370 H   0  0  0  0  0
   -3.3086  -28.5409  -18.7486 H   0  0  0  0  0
   -4.3561  -29.7404  -17.9392 H   0  0  0  0  0
   -2.7149  -30.7193  -19.2373 H   0  0  0  0  0
   -1.0549  -29.6699  -15.2485 H   0  0  0  0  0
   -2.6981  -31.6296  -13.7826 H   0  0  0  0  0
   -1.5848  -32.8584  -15.6112 H   0  0  0  0  0
   -0.0068  -32.1901  -15.1272 H   0  0  0  0  0
   -0.8558  -33.3328  -14.0573 H   0  0  0  0  0
   -0.9323  -32.9718  -12.3118 H   0  0  0  0  0
   -0.2625  -31.0983  -10.3431 H   0  0  0  0  0
    0.6923  -33.1240   -9.0987 H   0  0  0  0  0
    0.6020  -34.0448  -10.6621 H   0  0  0  0  0
   -2.2194  -35.0188   -8.4124 H   0  0  0  0  0
   -0.5141  -34.4811   -7.9021 H   0  0  0  0  0
   -1.7358  -34.0478  -10.6069 H   0  0  0  0  0
   -1.7863  -32.8584   -9.2857 H   0  0  0  0  0
   -0.8851  -36.8691   -8.3867 H   0  0  0  0  0
    0.4349  -35.9778   -9.3345 H   0  0  0  0  0
   -1.2580  -36.0235  -11.1616 H   0  0  0  0  0
   -1.1561  -37.9213  -12.4374 H   0  0  0  0  0
   -2.1885  -39.5163   -9.5139 H   0  0  0  0  0
   -1.9212  -38.0695   -8.5358 H   0  0  0  0  0
    1.4586  -30.3156   -9.5440 H   0  0  0  0  0
    4.1475  -30.8199  -10.5396 H   0  0  0  0  0
    3.6530  -30.3320   -8.8049 H   0  0  0  0  0
    2.0961  -28.7068  -11.2475 H   0  0  0  0  0
    3.9593  -26.4287  -10.8827 H   0  0  0  0  0
    3.2262  -25.5650  -13.0464 H   0  0  0  0  0
    2.0551  -26.9726  -13.1984 H   0  0  0  0  0
    3.8979  -28.4846  -13.3723 H   0  0  0  0  0
    3.0298  -27.4131  -15.4385 H   0  0  0  0  0
    4.1843  -26.0725  -15.2357 H   0  0  0  0  0
    4.7786  -27.7137  -15.5883 H   0  0  0  0  0
    5.7227  -26.0856  -13.1955 H   0  0  0  0  0
    5.5496  -27.3869  -11.9923 H   0  0  0  0  0
    6.2141  -27.7476  -13.6046 H   0  0  0  0  0
    1.2742  -27.3782   -9.4018 H   0  0  0  0  0
   -0.5877  -25.3359   -9.8273 H   0  0  0  0  0
   -1.6489  -26.3011   -8.3367 H   0  0  0  0  0
   -0.4227  -25.5486   -7.0557 H   0  0  0  0  0
   -1.0444  -27.7149   -6.4781 H   0  0  0  0  0
    0.6909  -27.6442   -7.1420 H   0  0  0  0  0
   -2.1880  -29.4015   -7.3105 H   0  0  0  0  0
   -0.7375  -23.1096   -9.1017 H   0  0  0  0  0
    0.0392  -21.0474   -8.4461 H   0  0  0  0  0
    1.6638  -22.5444   -6.3435 H   0  0  0  0  0
   -0.1388  -22.2834   -6.2258 H   0  0  0  0  0
    1.9110  -19.6636   -4.2601 H   0  0  0  0  0
    2.2326  -21.3902   -4.4513 H   0  0  0  0  0
    1.5397  -22.0534  -10.6246 H   0  0  0  0  0
    4.2818  -21.0200   -9.9321 H   0  0  0  0  0
    4.9076  -22.0807  -12.1811 H   0  0  0  0  0
    3.3528  -23.0245  -11.9524 H   0  0  0  0  0
    3.5389  -24.1466   -9.0508 H   0  0  0  0  0
    7.5895  -25.1913   -9.8810 H   0  0  0  0  0
    5.0816  -19.3034  -11.1235 H   0  0  0  0  0
    3.1265  -17.4826  -12.1126 H   0  0  0  0  0
    5.2446  -16.7557  -11.0973 H   0  0  0  0  0
    6.1543  -17.4651  -12.4539 H   0  0  0  0  0
    5.0763  -16.0758  -12.7345 H   0  0  0  0  0
    5.2045  -19.7752  -13.8000 H   0  0  0  0  0
    4.4771  -18.6821  -16.4043 H   0  0  0  0  0
    6.7151  -19.6796  -16.0489 H   0  0  0  0  0
    5.9676  -21.2358  -15.6124 H   0  0  0  0  0
    5.8342  -20.6200  -17.2779 H   0  0  0  0  0
    2.4395  -20.1350  -14.4921 H   0  0  0  0  0
    1.2200  -21.6925  -16.7330 H   0  0  0  0  0
    0.7888  -19.0637  -14.8689 H   0  0  0  0  0
   -0.1930  -22.7637  -14.9177 H   0  0  0  0  0
    0.9981  -22.0046  -13.7385 H   0  0  0  0  0
  1  2  1  0  0  0
  2  3  1  0  0  0
  2  5  1  0  0  0
  3  4  2  0  0  0
  3  7  1  0  0  0
  5  6  1  0  0  0
  6 84  1  0  0  0
  7  8  1  0  0  0
  8  9  1  0  0  0
  8 11  1  0  0  0
  9 10  2  0  0  0
  9 13  1  0  0  0
 11 12  1  0  0  0
 13 14  1  0  0  0
 14 15  1  0  0  0
 14 17  1  0  0  0
 15 16  2  0  0  0
 15 18  1  0  0  0
 18 19  1  0  0  0
 19 20  1  0  0  0
 19 28  1  0  0  0
 20 22  1  0  0  0
 22 21  1  0  0  0
 21 23  1  0  0  0
 23 24  1  0  0  0
 24 25  1  0  0  0
 25 26  2  0  0  0
 25 27  1  0  0  0
 28 29  2  0  0  0
 28 30  1  0  0  0
 30 31  1  0  0  0
 31 32  1  0  0  0
 32 33  2  0  0  0
 32 34  1  0  0  0
 34 35  1  0  0  0
 35 36  1  0  0  0
 35 38  1  0  0  0
 36 37  2  0  0  0
 36 42  1  0  0  0
 38 39  1  0  0  0
 39 40  1  0  0  0
 39 41  1  0  0  0
 42 43  1  0  0  0
 43 44  1  0  0  0
 43 46  1  0  0  0
 44 45  2  0  0  0
 44 51  1  0  0  0
 46 47  1  0  0  0
 47 48  1  0  0  0
 48 49  1  0  0  0
 48 50  2  0  0  0
 51 52  1  0  0  0
 52 53  1  0  0  0
 52 55  1  0  0  0
 53 54  2  0  0  0
 53 59  1  0  0  0
 55 56  1  0  0  0
 56 57  2  0  0  0
 56 58  1  0  0  0
 59 60  1  0  0  0
 60 61  1  0  0  0
 60 63  1  0  0  0
 61 62  2  0  0  0
 61 69  1  0  0  0
 63 64  1  0  0  0
 64 65  4  0  0  0
 64 66  4  0  0  0
 65 67  4  0  0  0
 66 68  4  0  0  0
 67 68  4  0  0  0
 69 70  1  0  0  0
 70 71  1  0  0  0
 70 73  1  0  0  0
 71 72  2  0  0  0
 71 74  1  0  0  0
 74 75  1  0  0  0
 75 76  1  0  0  0
 75 78  1  0  0  0
 76 77  2  0  0  0
 76 79  1  0  0  0
 79 80  1  0  0  0
 80 81  1  0  0  0
 80 83  1  0  0  0
 81 82  1  0  0  0
 81 85  2  0  0  0
 83 84  1  0  0  0
  1 86  1  0  0  0
  1 87  1  0  0  0
  1 88  1  0  0  0
  2 89  1  0  0  0
  5 90  1  0  0  0
  5 91  1  0  0  0
  7 92  1  0  0  0
  8 93  1  0  0  0
 11 94  1  0  0  0
 11 95  1  0  0  0
 12 96  1  0  0  0
 13 97  1  0  0  0
 14 98  1  0  0  0
 17 99  1  0  0  0
 17100  1  0  0  0
 17101  1  0  0  0
 18102  1  0  0  0
 19103  1  0  0  0
 20104  1  0  0  0
 20105  1  0  0  0
 21106  1  0  0  0
 21107  1  0  0  0
 22108  1  0  0  0
 22109  1  0  0  0
 23110  1  0  0  0
 23111  1  0  0  0
 24112  1  0  0  0
 26113  1  0  0  0
 27114  1  0  0  0
 27115  1  0  0  0
 30116  1  0  0  0
 31117  1  0  0  0
 31118  1  0  0  0
 34119  1  0  0  0
 35120  1  0  0  0
 38121  1  0  0  0
 38122  1  0  0  0
 39123  1  0  0  0
 40124  1  0  0  0
 40125  1  0  0  0
 40126  1  0  0  0
 41127  1  0  0  0
 41128  1  0  0  0
 41129  1  0  0  0
 42130  1  0  0  0
 43131  1  0  0  0
 46132  1  0  0  0
 46133  1  0  0  0
 47134  1  0  0  0
 47135  1  0  0  0
 49136  1  0  0  0
 51137  1  0  0  0
 52138  1  0  0  0
 55139  1  0  0  0
 55140  1  0  0  0
 58141  1  0  0  0
 58142  1  0  0  0
 59143  1  0  0  0
 60144  1  0  0  0
 63145  1  0  0  0
 63146  1  0  0  0
 66147  1  0  0  0
 67148  1  0  0  0
 69149  1  0  0  0
 70150  1  0  0  0
 73151  1  0  0  0
 73152  1  0  0  0
 73153  1  0  0  0
 74154  1  0  0  0
 75155  1  0  0  0
 78156  1  0  0  0
 78157  1  0  0  0
 78158  1  0  0  0
 79159  1  0  0  0
 80160  1  0  0  0
 82161  1  0  0  0
 83162  1  0  0  0
 83163  1  0  0  0
M  END
$$$$
