6cgp_ligand
  -I-interpret- 

 41 43  0  0  0  0  0  0  0  0999 V2000
  -23.4890   19.1300   23.7490 C   0  0  0  0  0
  -24.0630   17.7860   23.4560 C   0  0  0  0  0
  -17.6730   23.0540   27.6600 C   0  0  0  0  0
  -17.3690   23.4770   26.3890 C   0  0  0  0  0
  -18.4300   23.5340   25.4080 C   0  0  0  0  0
  -18.5390   22.1700   21.2400 C   0  0  0  0  0
  -19.4680   23.3620   20.9440 C   0  0  0  0  0
  -20.1050   24.1110   22.1550 C   0  0  0  0  0
  -19.6960   23.7790   23.6000 C   0  0  0  0  0
  -20.5420   23.3210   24.6330 C   0  0  0  0  0
  -22.4150   21.7440   24.3260 C   0  0  0  0  0
  -23.7840   21.4670   24.4580 C   0  0  0  0  0
  -24.2940   20.1890   24.1730 C   0  0  0  0  0
  -22.1230   19.4320   23.6240 C   0  0  0  0  0
  -21.5990   20.6940   23.9010 C   0  0  0  0  0
  -20.0150   22.7290   27.0830 C   0  0  0  0  0
  -18.9890   22.6810   28.0070 C   0  0  0  0  0
  -21.9220   23.0310   24.6170 N   0  0  0  0  0
  -23.3300   16.7400   22.8320 N   0  0  0  0  0
  -19.7140   23.1630   25.7750 N   0  0  0  0  0
  -18.3860   23.9200   24.0840 N   0  0  0  0  0
  -25.2500   17.5320   23.7610 O   0  0  0  0  0
  -23.9810   15.5520   22.6180 O   0  0  0  0  0
  -16.8856   23.0057   28.4122 H   0  0  0  0  0
  -16.3508   23.7633   26.1257 H   0  0  0  0  0
  -17.6949   22.5092   21.8405 H   0  0  0  0  0
  -19.0924   21.4068   21.7872 H   0  0  0  0  0
  -18.1744   21.7532   20.3011 H   0  0  0  0  0
  -20.3073   22.9439   20.3882 H   0  0  0  0  0
  -18.8412   24.1004   20.4441 H   0  0  0  0  0
  -21.1587   23.8358   22.1099 H   0  0  0  0  0
  -19.7862   25.1449   22.0222 H   0  0  0  0  0
  -24.4620   22.2547   24.7865 H   0  0  0  0  0
  -25.3642   20.0170   24.2879 H   0  0  0  0  0
  -21.4431   18.6456   23.2962 H   0  0  0  0  0
  -20.5289   20.8645   23.7832 H   0  0  0  0  0
  -21.0294   22.4394   27.3572 H   0  0  0  0  0
  -19.2001   22.3487   29.0234 H   0  0  0  0  0
  -22.5852   23.7781   24.8230 H   0  0  0  0  0
  -22.3570   16.8681   22.5540 H   0  0  0  0  0
  -23.3828   14.9325   22.1937 H   0  0  0  0  0
  1  2  1  0  0  0
 13  1  4  0  0  0
  1 14  4  0  0  0
  2 19  1  0  0  0
  2 22  2  0  0  0
  4  3  4  0  0  0
  3 17  4  0  0  0
  5  4  4  0  0  0
 20  5  4  0  0  0
  5 21  4  0  0  0
  7  6  1  0  0  0
  8  7  1  0  0  0
  9  8  1  0  0  0
 10  9  4  0  0  0
  9 21  4  0  0  0
 18 10  1  0  0  0
 10 20  4  0  0  0
 12 11  4  0  0  0
 11 15  4  0  0  0
 11 18  1  0  0  0
 12 13  4  0  0  0
 14 15  4  0  0  0
 17 16  4  0  0  0
 16 20  4  0  0  0
 19 23  1  0  0  0
  3 24  1  0  0  0
  4 25  1  0  0  0
  6 26  1  0  0  0
  6 27  1  0  0  0
  6 28  1  0  0  0
  7 29  1  0  0  0
  7 30  1  0  0  0
  8 31  1  0  0  0
  8 32  1  0  0  0
 12 33  1  0  0  0
 13 34  1  0  0  0
 14 35  1  0  0  0
 15 36  1  0  0  0
 16 37  1  0  0  0
 17 38  1  0  0  0
 18 39  1  0  0  0
 19 40  1  0  0  0
 23 41  1  0  0  0
M  END
$$$$
