5ap2_ligand
  -I-interpret- 

 62 66  0  0  0  0  0  0  0  0999 V2000
    3.0720  -36.1370  -14.3070 O   0  0  0  0  0
    2.3700  -35.7780  -13.3960 C   0  0  0  0  0
    1.7360  -36.6060  -12.5560 O   0  0  0  0  0
    1.8740  -38.0450  -12.8120 C   0  0  0  0  0
    0.5630  -38.5350  -13.3300 C   0  0  0  0  0
    2.2760  -38.6900  -11.5280 C   0  0  0  0  0
    2.1360  -34.4280  -13.1010 N   0  0  0  0  0
    2.6600  -33.3440  -13.8010 C   0  0  0  0  0
    3.4900  -33.3980  -14.9660 C   0  0  0  0  0
    4.6380  -34.1480  -15.2710 C   0  0  0  0  0
    5.0690  -33.8820  -16.4910 N   0  0  0  0  0
    4.1890  -32.9460  -16.9860 N   0  0  0  0  0
    4.3480  -32.4130  -18.3330 C   0  0  0  0  0
    3.2400  -32.6400  -16.0940 C   0  0  0  0  0
    2.2360  -32.1900  -13.2170 C   0  0  0  0  0
    1.4010  -32.5310  -12.1020 C   0  0  0  0  0
    1.3420  -33.9350  -12.0380 C   0  0  0  0  0
    0.5940  -34.5820  -11.0630 C   0  0  0  0  0
   -0.0960  -33.7830  -10.1530 C   0  0  0  0  0
   -0.0590  -32.4480  -10.1820 N   0  0  0  0  0
    0.6730  -31.8640  -11.1360 C   0  0  0  0  0
   -0.8800  -34.3300   -9.1580 N   0  0  0  0  0
   -1.1340  -35.6850   -8.8770 C   0  0  0  0  0
   -1.4790  -36.0850   -7.5940 C   0  0  0  0  0
   -1.7260  -37.4170   -7.3220 C   0  0  0  0  0
   -1.6340  -38.3750   -8.3240 C   0  0  0  0  0
   -1.2900  -37.9670   -9.6070 C   0  0  0  0  0
   -1.0420  -36.6360   -9.8820 C   0  0  0  0  0
   -1.8910  -39.7990   -8.0330 C   0  0  0  0  0
   -1.2590  -40.9210   -8.5960 C   0  0  0  0  0
   -1.7960  -42.0630   -8.0640 N   0  0  0  0  0
   -2.7200  -41.6670   -7.2100 C   0  0  0  0  0
   -3.5670  -42.5800   -6.4040 C   0  0  0  0  0
   -2.8400  -40.2950   -7.1300 N   0  0  0  0  0
   -3.7630  -39.5430   -6.2760 C   0  0  0  0  0
    2.6344  -38.2825  -13.5560 H   0  0  0  0  0
    0.6213  -39.6094  -13.5043 H   0  0  0  0  0
   -0.2166  -38.3263  -12.5974 H   0  0  0  0  0
    0.3302  -38.0260  -14.2653 H   0  0  0  0  0
    1.5227  -38.4836  -10.7677 H   0  0  0  0  0
    2.3606  -39.7668  -11.6747 H   0  0  0  0  0
    3.2374  -38.2891  -11.2069 H   0  0  0  0  0
    5.1108  -34.8562  -14.5906 H   0  0  0  0  0
    5.3179  -31.9227  -18.4162 H   0  0  0  0  0
    4.2884  -33.2281  -19.0543 H   0  0  0  0  0
    3.5562  -31.6910  -18.5325 H   0  0  0  0  0
    2.4254  -31.9288  -16.2309 H   0  0  0  0  0
    2.4878  -31.1802  -13.5411 H   0  0  0  0  0
    0.5484  -35.6698  -11.0116 H   0  0  0  0  0
    0.6973  -30.7744  -11.1530 H   0  0  0  0  0
   -1.3387  -33.6596   -8.5411 H   0  0  0  0  0
   -1.5555  -35.3452   -6.7971 H   0  0  0  0  0
   -1.9960  -37.7195   -6.3102 H   0  0  0  0  0
   -1.2150  -38.7053  -10.4054 H   0  0  0  0  0
   -0.7728  -36.3320  -10.8935 H   0  0  0  0  0
   -0.4641  -40.8874   -9.3411 H   0  0  0  0  0
   -4.1456  -43.2198   -7.0704 H   0  0  0  0  0
   -2.9316  -43.1961   -5.7678 H   0  0  0  0  0
   -4.2440  -41.9926   -5.7837 H   0  0  0  0  0
   -3.1931  -38.9033   -5.6021 H   0  0  0  0  0
   -4.4135  -38.9288   -6.8987 H   0  0  0  0  0
   -4.3667  -40.2394   -5.6941 H   0  0  0  0  0
  1  2  2  0  0  0
  2  3  1  0  0  0
  2  7  1  0  0  0
  3  4  1  0  0  0
  4  5  1  0  0  0
  4  6  1  0  0  0
  7  8  4  0  0  0
  7 17  4  0  0  0
  8  9  1  0  0  0
  8 15  4  0  0  0
  9 10  4  0  0  0
  9 14  4  0  0  0
 10 11  4  0  0  0
 11 12  4  0  0  0
 12 13  1  0  0  0
 12 14  4  0  0  0
 15 16  4  0  0  0
 16 17  4  0  0  0
 16 21  4  0  0  0
 17 18  4  0  0  0
 18 19  4  0  0  0
 19 20  4  0  0  0
 19 22  1  0  0  0
 20 21  4  0  0  0
 22 23  1  0  0  0
 23 24  4  0  0  0
 23 28  4  0  0  0
 24 25  4  0  0  0
 25 26  4  0  0  0
 26 27  4  0  0  0
 26 29  1  0  0  0
 27 28  4  0  0  0
 29 30  4  0  0  0
 29 34  4  0  0  0
 30 31  4  0  0  0
 31 32  4  0  0  0
 32 33  1  0  0  0
 32 34  4  0  0  0
 34 35  1  0  0  0
  4 36  1  0  0  0
  5 37  1  0  0  0
  5 38  1  0  0  0
  5 39  1  0  0  0
  6 40  1  0  0  0
  6 41  1  0  0  0
  6 42  1  0  0  0
 10 43  1  0  0  0
 13 44  1  0  0  0
 13 45  1  0  0  0
 13 46  1  0  0  0
 14 47  1  0  0  0
 15 48  1  0  0  0
 18 49  1  0  0  0
 21 50  1  0  0  0
 22 51  1  0  0  0
 24 52  1  0  0  0
 25 53  1  0  0  0
 27 54  1  0  0  0
 28 55  1  0  0  0
 30 56  1  0  0  0
 33 57  1  0  0  0
 33 58  1  0  0  0
 33 59  1  0  0  0
 35 60  1  0  0  0
 35 61  1  0  0  0
 35 62  1  0  0  0
M  END
$$$$
