3h1x_ligand
  -I-interpret- 

 41 43  0  0  0  0  0  0  0  0999 V2000
    0.7450  -11.4340    8.4070 C   0  0  0  0  0
    1.2510  -12.6140    7.6690 C   0  0  0  0  0
    2.5830  -12.6840    7.3070 C   0  0  0  0  0
    3.4670  -11.6510    7.6110 C   0  0  0  0  0
    3.0020  -10.5440    8.3180 C   0  0  0  0  0
    1.6630  -10.4350    8.7020 C   0  0  0  0  0
    5.4300  -10.7000    6.4900 C   0  0  0  0  0
    0.1170  -13.5310    7.4440 C   0  0  0  0  0
   -1.0290  -12.8260    8.1000 C   0  0  0  0  0
   -1.5040  -10.8930    9.2380 C   0  0  0  0  0
   -1.4230   -9.5470    9.9220 C   0  0  0  0  0
   -2.6140   -9.0630   10.4610 C   0  0  0  0  0
   -2.6640   -7.8380   11.1110 C   0  0  0  0  0
   -1.5250   -7.0720   11.2430 C   0  0  0  0  0
   -0.3330   -7.5360   10.7080 C   0  0  0  0  0
   -0.2850   -8.7640   10.0540 C   0  0  0  0  0
   -2.4320  -13.3020    8.2730 C   0  0  0  0  0
    0.3260  -14.8880    6.8070 C   0  0  0  0  0
   -0.7900  -15.8200    6.4450 C   0  0  0  0  0
   -0.5620  -11.6700    8.6010 N   0  0  0  0  0
    4.7610  -11.7320    7.2460 O   0  0  0  0  0
   -2.6130  -11.3850    9.2470 O   0  0  0  0  0
   -1.6300  -16.2190    7.2410 O   0  0  0  0  0
   -0.7810  -16.2810    5.2120 O   0  0  0  0  0
   -1.6480   -5.5060   12.1090 Cl  0  0  0  0  0
    2.9481  -13.5623    6.7746 H   0  0  0  0  0
    3.6978   -9.7459    8.5771 H   0  0  0  0  0
    1.3327   -9.5486    9.2436 H   0  0  0  0  0
    4.9247  -10.5666    5.5335 H   0  0  0  0  0
    5.4026   -9.7654    7.0502 H   0  0  0  0  0
    6.4660  -10.9915    6.3175 H   0  0  0  0  0
   -3.5229   -9.6578   10.3702 H   0  0  0  0  0
   -3.6088   -7.4793   11.5195 H   0  0  0  0  0
    0.5721   -6.9356   10.8000 H   0  0  0  0  0
    0.6600   -9.1155    9.6397 H   0  0  0  0  0
   -2.8742  -13.4889    7.2944 H   0  0  0  0  0
   -2.4325  -14.2234    8.8553 H   0  0  0  0  0
   -3.0110  -12.5403    8.7952 H   0  0  0  0  0
    0.8595  -15.4390    7.5815 H   0  0  0  0  0
    0.7549  -14.6362    5.8371 H   0  0  0  0  0
   -0.0651  -15.8691    4.7228 H   0  0  0  0  0
  1  2  4  0  0  0
  1  6  4  0  0  0
 20  1  4  0  0  0
  2  3  4  0  0  0
  8  2  4  0  0  0
  3  4  4  0  0  0
  5  4  4  0  0  0
  4 21  1  0  0  0
  6  5  4  0  0  0
 21  7  1  0  0  0
  9  8  4  0  0  0
  8 18  1  0  0  0
  9 17  1  0  0  0
 20  9  4  0  0  0
 10 11  1  0  0  0
 10 20  1  0  0  0
 10 22  2  0  0  0
 11 12  4  0  0  0
 11 16  4  0  0  0
 12 13  4  0  0  0
 13 14  4  0  0  0
 14 15  4  0  0  0
 14 25  1  0  0  0
 15 16  4  0  0  0
 18 19  1  0  0  0
 19 23  2  0  0  0
 19 24  1  0  0  0
  3 26  1  0  0  0
  5 27  1  0  0  0
  6 28  1  0  0  0
  7 29  1  0  0  0
  7 30  1  0  0  0
  7 31  1  0  0  0
 12 32  1  0  0  0
 13 33  1  0  0  0
 15 34  1  0  0  0
 16 35  1  0  0  0
 17 36  1  0  0  0
 17 37  1  0  0  0
 17 38  1  0  0  0
 18 39  1  0  0  0
 18 40  1  0  0  0
 24 41  1  0  0  0
M  END
$$$$
