4nie_ligand
  -I-interpret- 

 66 68  0  0  0  0  0  0  0  0999 V2000
   20.9890   -8.1840   -6.4500 C   0  0  0  0  0
   21.4630   -8.0560   -5.0220 C   0  0  0  0  0
   22.4980   -6.8750   -4.6780 C   0  0  0  0  0
   21.9900   -5.5130   -4.6290 N   0  3  0  0  0
   21.4160   -5.1740   -3.3090 C   0  0  0  0  0
   20.3560   -4.1320   -3.2530 C   0  0  0  0  0
   20.3380   -3.2150   -2.1710 C   0  0  0  0  0
   19.3350   -2.2140   -2.0960 C   0  0  0  0  0
   18.3730   -2.1240   -3.0660 C   0  0  0  0  0
   18.3820   -3.0390   -4.1530 C   0  0  0  0  0
   19.3880   -4.0420   -4.2350 C   0  0  0  0  0
   22.9540   -4.4950   -5.1530 C   0  0  0  0  0
   23.2610   -4.5620   -6.6560 C   0  0  0  0  0
   22.2880   -4.2650   -7.6030 C   0  0  0  0  0
   22.5810   -4.3440   -8.9750 C   0  0  0  0  0
   23.8600   -4.7330   -9.4070 C   0  0  0  0  0
   24.2720   -4.8510  -10.7650 N   0  0  0  0  0
   23.4110   -4.8870  -11.9140 C   0  0  0  0  0
   22.2160   -4.8380  -11.8330 O   0  0  0  0  0
   24.0380   -5.0650  -13.2770 C   0  0  0  0  0
   23.7770   -6.4890  -13.7590 C   0  0  0  0  0
   24.4050   -7.5510  -13.0690 C   0  0  0  0  0
   24.1660   -8.8940  -13.4560 C   0  0  0  0  0
   23.2920   -9.1730  -14.5350 C   0  0  0  0  0
   22.6410   -8.1110  -15.2110 C   0  0  0  0  0
   22.8690   -6.7650  -14.8280 C   0  0  0  0  0
   22.9820  -10.8400  -15.0040 S   0  0  0  0  0
   22.9390  -10.9650  -16.4350 O   0  0  0  0  0
   24.0300  -11.7580  -14.5970 O   0  0  0  0  0
   21.3770  -11.3070  -14.2570 C   0  0  0  0  0
   21.1740  -10.9830  -12.7430 C   0  0  0  0  0
   24.8340   -5.0400   -8.4310 C   0  0  0  0  0
   24.5470   -4.9640   -7.0790 C   0  0  0  0  0
   20.4833   -7.2653   -6.7473 H   0  0  0  0  0
   21.8456   -8.3560   -7.1018 H   0  0  0  0  0
   20.2972   -9.0227   -6.5281 H   0  0  0  0  0
   21.9973   -8.9819   -4.8090 H   0  0  0  0  0
   20.5691   -7.8385   -4.4374 H   0  0  0  0  0
   23.2252   -6.8829   -5.4899 H   0  0  0  0  0
   22.8532   -7.0871   -3.6696 H   0  0  0  0  0
   21.2097   -5.4782   -5.2850 H   0  0  0  0  0
   22.2462   -4.7724   -2.7280 H   0  0  0  0  0
   20.9395   -6.0893   -2.9580 H   0  0  0  0  0
   21.0987   -3.2796   -1.3930 H   0  0  0  0  0
   19.3304   -1.5128   -1.2615 H   0  0  0  0  0
   17.6039   -1.3541   -3.0047 H   0  0  0  0  0
   17.6164   -2.9724   -4.9260 H   0  0  0  0  0
   19.3950   -4.7395   -5.0726 H   0  0  0  0  0
   23.8986   -4.6787   -4.6411 H   0  0  0  0  0
   22.4935   -3.5224   -4.9796 H   0  0  0  0  0
   21.2903   -3.9686   -7.2790 H   0  0  0  0  0
   21.8116   -4.1021   -9.7083 H   0  0  0  0  0
   25.2750   -4.9162  -10.9384 H   0  0  0  0  0
   25.1117   -4.8881  -13.2146 H   0  0  0  0  0
   23.6031   -4.3530  -13.9785 H   0  0  0  0  0
   25.0753   -7.3367  -12.2366 H   0  0  0  0  0
   24.6542   -9.7105  -12.9239 H   0  0  0  0  0
   21.9591   -8.3309  -16.0325 H   0  0  0  0  0
   22.3583   -5.9509  -15.3423 H   0  0  0  0  0
   21.3172  -12.3923  -14.3382 H   0  0  0  0  0
   20.6230  -10.7259  -14.7879 H   0  0  0  0  0
   21.9314  -11.5033  -12.1567 H   0  0  0  0  0
   21.2669   -9.9082  -12.5871 H   0  0  0  0  0
   20.1825  -11.3121  -12.4321 H   0  0  0  0  0
   25.8316   -5.3428   -8.7489 H   0  0  0  0  0
   25.3113   -5.2137   -6.3431 H   0  0  0  0  0
  1  2  1  0  0  0
  2  3  1  0  0  0
  3  4  1  0  0  0
  4  5  1  0  0  0
  4 12  1  0  0  0
  5  6  1  0  0  0
  6  7  4  0  0  0
  6 11  4  0  0  0
  7  8  4  0  0  0
  8  9  4  0  0  0
  9 10  4  0  0  0
 10 11  4  0  0  0
 12 13  1  0  0  0
 13 14  4  0  0  0
 13 33  4  0  0  0
 14 15  4  0  0  0
 15 16  4  0  0  0
 16 17  1  0  0  0
 16 32  4  0  0  0
 17 18  1  0  0  0
 18 19  2  0  0  0
 18 20  1  0  0  0
 20 21  1  0  0  0
 21 22  4  0  0  0
 21 26  4  0  0  0
 22 23  4  0  0  0
 23 24  4  0  0  0
 24 25  4  0  0  0
 24 27  1  0  0  0
 25 26  4  0  0  0
 27 28  2  0  0  0
 27 29  2  0  0  0
 27 30  1  0  0  0
 30 31  1  0  0  0
 32 33  4  0  0  0
  1 34  1  0  0  0
  1 35  1  0  0  0
  1 36  1  0  0  0
  2 37  1  0  0  0
  2 38  1  0  0  0
  3 39  1  0  0  0
  3 40  1  0  0  0
  4 41  1  0  0  0
  5 42  1  0  0  0
  5 43  1  0  0  0
  7 44  1  0  0  0
  8 45  1  0  0  0
  9 46  1  0  0  0
 10 47  1  0  0  0
 11 48  1  0  0  0
 12 49  1  0  0  0
 12 50  1  0  0  0
 14 51  1  0  0  0
 15 52  1  0  0  0
 17 53  1  0  0  0
 20 54  1  0  0  0
 20 55  1  0  0  0
 22 56  1  0  0  0
 23 57  1  0  0  0
 25 58  1  0  0  0
 26 59  1  0  0  0
 30 60  1  0  0  0
 30 61  1  0  0  0
 31 62  1  0  0  0
 31 63  1  0  0  0
 31 64  1  0  0  0
 32 65  1  0  0  0
 33 66  1  0  0  0
M  END
$$$$
