1w5w_ligand
  -I-interpret- 

 88 93  0  0  0  0  0  0  0  0999 V2000
   16.5820   21.9310    8.8040 C   0  0  0  0  0
   18.0150   21.6930    8.5450 C   0  0  0  0  0
   18.6650   20.4460    8.8960 C   0  0  0  0  0
   17.9000   19.3600    9.5300 C   0  0  0  0  0
   16.4570   19.5590    9.8060 C   0  0  0  0  0
   15.8100   20.8220    9.4490 C   0  0  0  0  0
    9.8880   23.7850    2.2390 C   0  0  0  0  0
    8.7840   22.8960    2.6600 C   0  0  0  0  0
    7.3800   23.4020    2.6250 C   0  0  0  0  0
    7.1210   24.8020    2.1630 C   0  0  0  0  0
    8.2690   25.6600    1.7500 C   0  0  0  0  0
    9.6040   25.1450    1.7960 C   0  0  0  0  0
   11.3380   23.3620    2.2490 C   0  0  0  0  0
   11.8420   23.0150    3.5620 O   0  0  0  0  0
   11.8890   24.1000    4.6260 C   0  0  0  0  0
   12.9460   23.8690    5.6740 C   0  0  0  0  0
   14.2490   23.6340    5.0210 C   0  0  0  0  0
   15.1920   22.8530    6.0190 C   0  0  0  0  0
   15.1570   21.3490    5.8340 C   0  0  0  0  0
   14.1050   20.7100    6.0550 O   0  0  0  0  0
   16.3030   20.7060    5.4450 N   0  0  0  0  0
   14.8980   23.1810    7.4420 O   0  0  0  0  0
   16.0160   23.2960    8.3780 C   0  0  0  0  0
   14.8000   24.8910    4.5700 O   0  0  0  0  0
   13.1150   25.0360    6.5790 O   0  0  0  0  0
   10.6680   24.2460    5.4690 C   0  0  0  0  0
   10.3060   23.2750    6.1790 O   0  0  0  0  0
    9.9890   25.4230    5.4150 N   0  0  0  0  0
    8.7800   25.6710    6.1740 C   0  0  0  0  0
    9.0860   26.4100    7.4320 C   0  0  0  0  0
    7.9520   27.2730    7.7780 C   0  0  0  0  0
   10.2930   26.3740    8.2900 C   0  0  0  0  0
   10.3370   27.2330    9.5150 C   0  0  0  0  0
    9.1820   28.0890    9.8330 C   0  0  0  0  0
    7.7220   26.6120    5.5360 C   0  0  0  0  0
    8.4330   27.6510    4.8380 O   0  0  0  0  0
    7.9800   28.1230    8.9790 C   0  0  0  0  0
    6.8910   27.1130    6.7550 C   0  0  0  0  0
   16.4110   19.2780    5.2440 C   0  0  0  0  0
   16.3130   18.8900    3.7700 C   0  0  0  0  0
   17.2530   17.8230    3.4810 C   0  0  0  0  0
   15.4530   19.4300    2.7050 C   0  0  0  0  0
   15.5650   18.8630    1.3240 C   0  0  0  0  0
   16.5300   17.7860    1.0740 C   0  0  0  0  0
   17.8180   18.7330    5.6140 C   0  0  0  0  0
   18.7870   19.7730    5.3210 O   0  0  0  0  0
   17.3850   17.2460    2.1300 C   0  0  0  0  0
   17.9840   17.4790    4.7430 C   0  0  0  0  0
    5.7710   25.3180    2.1170 F   0  0  0  0  0
   18.5370   18.1490    9.8660 F   0  0  0  0  0
   14.4250   21.0040    9.7140 F   0  0  0  0  0
    9.0560   21.6000    3.0860 F   0  0  0  0  0
   18.6038   22.4804    8.0745 H   0  0  0  0  0
   19.7267   20.3116    8.6892 H   0  0  0  0  0
   15.8776   18.7639   10.2752 H   0  0  0  0  0
    6.5541   22.7603    2.9319 H   0  0  0  0  0
    8.0912   26.6811    1.4125 H   0  0  0  0  0
   10.4307   25.7869    1.4916 H   0  0  0  0  0
   11.9240   24.2086    1.8913 H   0  0  0  0  0
   11.4191   22.4713    1.6260 H   0  0  0  0  0
   12.0566   24.9700    3.9910 H   0  0  0  0  0
   12.6207   23.0084    6.2585 H   0  0  0  0  0
   14.1375   23.0110    4.1335 H   0  0  0  0  0
   16.1971   23.1944    5.7713 H   0  0  0  0  0
   17.1360   21.2729    5.2865 H   0  0  0  0  0
   16.8135   23.8460    7.8784 H   0  0  0  0  0
   15.6505   23.7991    9.2732 H   0  0  0  0  0
   15.6469   24.7341    4.1461 H   0  0  0  0  0
   13.7964   24.8413    7.2266 H   0  0  0  0  0
   10.3469   26.1646    4.8131 H   0  0  0  0  0
    8.3898   24.6581    6.2728 H   0  0  0  0  0
   11.1358   25.7321    8.0333 H   0  0  0  0  0
   11.2131   27.2249   10.1635 H   0  0  0  0  0
    9.2162   28.7151   10.7246 H   0  0  0  0  0
    7.0565   26.1584    4.8015 H   0  0  0  0  0
    7.8032   28.2507    4.4315 H   0  0  0  0  0
    7.1335   28.7618    9.2311 H   0  0  0  0  0
    6.3282   28.0255    6.5585 H   0  0  0  0  0
    6.0924   26.4333    7.0521 H   0  0  0  0  0
   15.6067   18.8767    5.8606 H   0  0  0  0  0
   14.7450   20.2308    2.9184 H   0  0  0  0  0
   14.9395   19.2442    0.5168 H   0  0  0  0  0
   16.6121   17.3750    0.0678 H   0  0  0  0  0
   17.9534   18.4716    6.6635 H   0  0  0  0  0
   19.6673   19.4600    5.5417 H   0  0  0  0  0
   18.0953   16.4448    1.9259 H   0  0  0  0  0
   19.0307   17.2334    4.5632 H   0  0  0  0  0
   17.5869   16.5843    5.2226 H   0  0  0  0  0
  1  2  4  0  0  0
  1  6  4  0  0  0
 23  1  1  0  0  0
  2  3  4  0  0  0
  3  4  4  0  0  0
  5  4  4  0  0  0
  4 50  1  0  0  0
  6  5  4  0  0  0
  6 51  1  0  0  0
  7  8  4  0  0  0
  7 12  4  0  0  0
 13  7  1  0  0  0
  8  9  4  0  0  0
  8 52  1  0  0  0
  9 10  4  0  0  0
 11 10  4  0  0  0
 10 49  1  0  0  0
 12 11  4  0  0  0
 14 13  1  0  0  0
 15 14  1  0  0  0
 16 15  1  0  0  0
 15 26  1  0  0  0
 17 16  1  0  0  0
 16 25  1  0  0  0
 18 17  1  0  0  0
 17 24  1  0  0  0
 18 19  1  0  0  0
 22 18  1  0  0  0
 19 20  2  0  0  0
 19 21  1  0  0  0
 21 39  1  0  0  0
 22 23  1  0  0  0
 26 27  2  0  0  0
 26 28  1  0  0  0
 28 29  1  0  0  0
 29 30  1  0  0  0
 29 35  1  0  0  0
 30 31  4  0  0  0
 30 32  4  0  0  0
 31 37  4  0  0  0
 31 38  1  0  0  0
 32 33  4  0  0  0
 33 34  4  0  0  0
 34 37  4  0  0  0
 35 36  1  0  0  0
 35 38  1  0  0  0
 39 40  1  0  0  0
 39 45  1  0  0  0
 40 41  4  0  0  0
 40 42  4  0  0  0
 41 47  4  0  0  0
 41 48  1  0  0  0
 42 43  4  0  0  0
 43 44  4  0  0  0
 44 47  4  0  0  0
 45 46  1  0  0  0
 45 48  1  0  0  0
  2 53  1  0  0  0
  3 54  1  0  0  0
  5 55  1  0  0  0
  9 56  1  0  0  0
 11 57  1  0  0  0
 12 58  1  0  0  0
 13 59  1  0  0  0
 13 60  1  0  0  0
 15 61  1  0  0  0
 16 62  1  0  0  0
 17 63  1  0  0  0
 18 64  1  0  0  0
 21 65  1  0  0  0
 23 66  1  0  0  0
 23 67  1  0  0  0
 24 68  1  0  0  0
 25 69  1  0  0  0
 28 70  1  0  0  0
 29 71  1  0  0  0
 32 72  1  0  0  0
 33 73  1  0  0  0
 34 74  1  0  0  0
 35 75  1  0  0  0
 36 76  1  0  0  0
 37 77  1  0  0  0
 38 78  1  0  0  0
 38 79  1  0  0  0
 39 80  1  0  0  0
 42 81  1  0  0  0
 43 82  1  0  0  0
 44 83  1  0  0  0
 45 84  1  0  0  0
 46 85  1  0  0  0
 47 86  1  0  0  0
 48 87  1  0  0  0
 48 88  1  0  0  0
M  END
$$$$
