3chg_ligand
  -I-interpret- 

 16 15  0  0  0  0  0  0  0  0999 V2000
   13.2440  -16.5190   22.8380 O   0  0  0  0  0
   14.0570  -17.1970   22.1710 C   0  0  0  0  0
   15.2690  -16.9150   22.0620 O   0  0  0  0  0
   13.5500  -18.4270   21.4640 C   0  0  0  0  0
   12.5450  -19.2510   22.4960 S   0  0  0  0  0
   11.5910  -20.2990   21.6350 C   0  0  0  0  0
   13.4930  -20.1020   23.5580 C   0  0  0  0  0
   12.3731  -16.9189   22.7812 H   0  0  0  0  0
   14.3876  -19.0617   21.1747 H   0  0  0  0  0
   13.0057  -18.1410   20.5640 H   0  0  0  0  0
   12.2236  -20.9920   21.0803 H   0  0  0  0  0
   10.9543  -20.8566   22.3219 H   0  0  0  0  0
   10.9703  -19.7349   20.9389 H   0  0  0  0  0
   12.8564  -20.6596   24.2450 H   0  0  0  0  0
   14.1257  -20.7950   23.0034 H   0  0  0  0  0
   14.1178  -19.4088   24.1212 H   0  0  0  0  0
  1  2  1  0  0  0
  2  3  2  0  0  0
  2  4  1  0  0  0
  4  5  1  0  0  0
  5  6  1  0  0  0
  5  7  1  0  0  0
  1  8  1  0  0  0
  4  9  1  0  0  0
  4 10  1  0  0  0
  6 11  1  0  0  0
  6 12  1  0  0  0
  6 13  1  0  0  0
  7 14  1  0  0  0
  7 15  1  0  0  0
  7 16  1  0  0  0
M  END
$$$$
