7cpa_ligand
  -I-interpret- 

 76 78  0  0  0  0  0  0  0  0999 V2000
   50.4520   14.0170   38.8320 C   0  0  0  0  0
   52.4530   15.0610   39.5900 C   0  0  0  0  0
   53.2970   16.2260   39.4890 C   0  0  0  0  0
   54.2900   16.2700   38.5730 C   0  0  0  0  0
   53.1230   17.2780   40.3170 C   0  0  0  0  0
   55.0970   17.3480   38.4740 C   0  0  0  0  0
   53.9570   18.3430   40.2510 C   0  0  0  0  0
   54.9380   18.3810   39.3240 C   0  0  0  0  0
   48.4850   16.2040   37.5840 C   0  0  0  0  0
   49.3870   15.2350   36.9420 C   0  0  0  0  0
   48.9550   14.5660   35.5970 C   0  0  0  0  0
   50.0130   13.8520   34.9140 C   0  0  0  0  0
   50.0950   12.5020   34.9800 C   0  0  0  0  0
   50.9490   14.5400   34.2240 C   0  0  0  0  0
   51.1000   11.8490   34.3540 C   0  0  0  0  0
   51.9640   13.8890   33.6110 C   0  0  0  0  0
   52.0350   12.5410   33.6680 C   0  0  0  0  0
   48.1640   18.5170   38.1860 C   0  0  0  0  0
   49.2950   19.1450   39.1790 C   0  0  0  0  0
   50.4830   19.6330   38.3730 C   0  0  0  0  0
   49.7240   17.9690   40.0920 C   0  0  0  0  0
   47.7100   19.6540   33.7850 C   0  0  0  0  0
   48.0680   20.6970   34.7510 C   0  0  0  0  0
   49.0220   21.6400   34.0230 C   0  0  0  0  0
   48.5830   22.3320   32.8510 C   0  0  0  0  0
   47.8680   23.4720   32.9580 C   0  0  0  0  0
   48.8680   21.8260   31.6320 C   0  0  0  0  0
   47.4560   24.1150   31.8440 C   0  0  0  0  0
   48.4400   22.4590   30.5200 C   0  0  0  0  0
   47.7330   23.6040   30.6250 C   0  0  0  0  0
   50.5660   13.0150   39.5110 O   0  0  0  0  0
   51.1200   15.1080   39.1360 O   0  0  0  0  0
   47.5610   15.9270   38.2770 O   0  0  0  0  0
   46.3340   18.6230   36.2450 O   0  0  0  0  0
   46.8510   20.7440   37.7920 O   0  0  0  0  0
   48.5740   20.1600   35.9900 O   0  0  0  0  0
   48.5170   18.7790   33.8180 O   0  0  0  0  0
   46.6550   19.5700   33.0140 O   0  0  0  0  0
   49.6990   14.0610   37.6930 N   0  0  0  0  0
   48.8200   17.5150   37.4010 N   0  0  0  0  0
   47.3970   19.5450   37.0120 P   0  0  0  0  0
   52.3673   14.8815   40.6617 H   0  0  0  0  0
   52.9320   14.3236   38.9459 H   0  0  0  0  0
   54.4415   15.4227   37.9043 H   0  0  0  0  0
   52.3084   17.2702   41.0412 H   0  0  0  0  0
   55.8735   17.3823   37.7099 H   0  0  0  0  0
   53.8359   19.1720   40.9483 H   0  0  0  0  0
   55.5995   19.2452   39.2636 H   0  0  0  0  0
   50.1994   15.9511   36.8188 H   0  0  0  0  0
   48.6303   15.3667   34.9326 H   0  0  0  0  0
   48.1819   13.8364   35.8378 H   0  0  0  0  0
   49.3479   11.9395   35.5400 H   0  0  0  0  0
   50.8858   15.6263   34.1609 H   0  0  0  0  0
   51.1556   10.7615   34.4032 H   0  0  0  0  0
   52.7250   14.4522   33.0708 H   0  0  0  0  0
   52.8440   12.0140   33.1621 H   0  0  0  0  0
   47.3731   18.2091   38.8700 H   0  0  0  0  0
   48.9162   19.9940   39.7481 H   0  0  0  0  0
   50.9143   18.7974   37.8217 H   0  0  0  0  0
   50.1546   20.4011   37.6728 H   0  0  0  0  0
   51.2312   20.0500   39.0471 H   0  0  0  0  0
   48.8582   17.6061   40.6458 H   0  0  0  0  0
   50.1284   17.1636   39.4789 H   0  0  0  0  0
   50.4862   18.3129   40.7912 H   0  0  0  0  0
   47.1921   21.2548   35.0823 H   0  0  0  0  0
   49.8297   20.9965   33.6743 H   0  0  0  0  0
   49.2302   22.4296   34.7450 H   0  0  0  0  0
   47.6236   23.8729   33.9417 H   0  0  0  0  0
   49.4446   20.9050   31.5462 H   0  0  0  0  0
   46.8989   25.0480   31.9290 H   0  0  0  0  0
   48.6652   22.0457   29.5368 H   0  0  0  0  0
   47.3861   24.1155   29.7271 H   0  0  0  0  0
   46.7950   17.9102   35.7967 H   0  0  0  0  0
   46.1206   20.3608   33.1175 H   0  0  0  0  0
   49.3263   13.1764   37.3481 H   0  0  0  0  0
   49.5277   17.7770   36.7147 H   0  0  0  0  0
  1 31  2  0  0  0
  1 32  1  0  0  0
 39  1  1  0  0  0
  2  3  1  0  0  0
 32  2  1  0  0  0
  3  4  4  0  0  0
  3  5  4  0  0  0
  4  6  4  0  0  0
  5  7  4  0  0  0
  6  8  4  0  0  0
  7  8  4  0  0  0
  9 10  1  0  0  0
 10 11  1  0  0  0
 10 39  1  0  0  0
 11 12  1  0  0  0
 12 13  4  0  0  0
 12 14  4  0  0  0
 13 15  4  0  0  0
 14 16  4  0  0  0
 15 17  4  0  0  0
 16 17  4  0  0  0
 18 19  1  0  0  0
 19 20  1  0  0  0
 19 21  1  0  0  0
 23 22  1  0  0  0
 23 24  1  0  0  0
 24 25  1  0  0  0
 25 26  4  0  0  0
 25 27  4  0  0  0
 26 28  4  0  0  0
 27 29  4  0  0  0
 28 30  4  0  0  0
 29 30  4  0  0  0
 36 41  1  0  0  0
 41 35  2  0  0  0
 41 34  1  0  0  0
 41 18  1  0  0  0
 18 40  1  0  0  0
 40  9  1  0  0  0
 22 38  1  0  0  0
 22 37  2  0  0  0
 36 23  1  0  0  0
  9 33  2  0  0  0
  2 42  1  0  0  0
  2 43  1  0  0  0
  4 44  1  0  0  0
  5 45  1  0  0  0
  6 46  1  0  0  0
  7 47  1  0  0  0
  8 48  1  0  0  0
 10 49  1  0  0  0
 11 50  1  0  0  0
 11 51  1  0  0  0
 13 52  1  0  0  0
 14 53  1  0  0  0
 15 54  1  0  0  0
 16 55  1  0  0  0
 17 56  1  0  0  0
 18 57  1  0  0  0
 19 58  1  0  0  0
 20 59  1  0  0  0
 20 60  1  0  0  0
 20 61  1  0  0  0
 21 62  1  0  0  0
 21 63  1  0  0  0
 21 64  1  0  0  0
 23 65  1  0  0  0
 24 66  1  0  0  0
 24 67  1  0  0  0
 26 68  1  0  0  0
 27 69  1  0  0  0
 28 70  1  0  0  0
 29 71  1  0  0  0
 30 72  1  0  0  0
 34 73  1  0  0  0
 38 74  1  0  0  0
 39 75  1  0  0  0
 40 76  1  0  0  0
M  END
$$$$
