2rka_ligand
  -I-interpret- 

 14 13  0  0  0  0  0  0  0  0999 V2000
   13.1880    3.3870   18.4610 P   0  0  0  0  0
   14.0660    4.7340   18.4330 O   0  0  0  0  0
   13.5220    2.5810   17.2280 O   0  0  0  0  0
   11.7300    3.7740   18.4510 O   0  0  0  0  0
   13.4560    2.5720   19.7030 O   0  0  0  0  0
   15.2790    4.8540   19.1330 C   0  0  0  0  0
   16.3710    5.2120   18.1610 C   0  0  0  0  0
   17.3720    4.4820   18.0970 O   0  0  0  0  0
   16.2980    6.2190   17.4180 O   0  0  0  0  0
   14.4514    2.3411   17.2460 H   0  0  0  0  0
   14.3814    2.3176   19.7239 H   0  0  0  0  0
   15.5167    3.9093   19.6219 H   0  0  0  0  0
   15.1911    5.6325   19.8908 H   0  0  0  0  0
   15.4713    6.6781   17.5835 H   0  0  0  0  0
  1  2  1  0  0  0
  1  3  1  0  0  0
  1  4  2  0  0  0
  1  5  1  0  0  0
  2  6  1  0  0  0
  6  7  1  0  0  0
  7  8  2  0  0  0
  7  9  1  0  0  0
  3 10  1  0  0  0
  5 11  1  0  0  0
  6 12  1  0  0  0
  6 13  1  0  0  0
  9 14  1  0  0  0
M  END
$$$$
