2vqt_ligand
  -I-interpret- 

 33 33  0  0  0  0  0  0  0  0999 V2000
   26.8870   49.7360   -3.5530 O   0  0  0  0  0
   25.9940   49.6520   -2.5910 C   0  0  0  0  0
   26.3510   48.4220   -1.7190 C   0  0  0  0  0
   27.5270   48.5780   -0.7100 C   0  0  0  0  0
   27.2290   49.5370    0.2070 O   0  0  0  0  0
   27.9770   47.2330   -0.0400 C   0  0  0  0  0
   29.2890   47.1180    0.0840 O   0  0  0  0  0
   27.4200   45.9670   -0.7780 C   0  0  0  0  0
   28.0270   44.7830   -0.4910 O   0  0  0  0  0
   26.5860   47.3310   -2.5920 N   0  0  0  0  0
   27.3150   46.2420   -2.2690 C   0  0  0  0  0
   27.8990   45.4260   -3.1680 N   0  0  0  0  0
   28.1310   45.7100   -4.5470 C   0  0  0  0  0
   29.3210   46.6510   -4.9110 C   0  0  0  0  0
   30.6010   45.9580   -4.6720 N   0  3  0  0  0
   26.6868   50.4928   -4.1087 H   0  0  0  0  0
   24.9945   49.5404   -3.0113 H   0  0  0  0  0
   26.0023   50.5592   -1.9869 H   0  0  0  0  0
   25.4956   48.2684   -1.0612 H   0  0  0  0  0
   28.3968   48.8975   -1.2840 H   0  0  0  0  0
   26.9597   50.3391   -0.2465 H   0  0  0  0  0
   27.5428   47.2790    0.9587 H   0  0  0  0  0
   29.6356   47.8910    0.5355 H   0  0  0  0  0
   26.4223   45.8053   -0.3699 H   0  0  0  0  0
   28.0636   44.6660    0.4611 H   0  0  0  0  0
   26.1775   47.3712   -3.5257 H   0  0  0  0  0
   27.2362   46.2297   -4.8897 H   0  0  0  0  0
   28.3716   44.7498   -5.0034 H   0  0  0  0  0
   29.2750   47.5453   -4.2895 H   0  0  0  0  0
   29.2525   46.9263   -5.9634 H   0  0  0  0  0
   31.3730   46.5798   -4.9123 H   0  0  0  0  0
   30.6666   45.6973   -3.6881 H   0  0  0  0  0
   30.6455   45.1194   -5.2509 H   0  0  0  0  0
  1  2  1  0  0  0
  2  3  1  0  0  0
  3  4  1  0  0  0
  3 10  1  0  0  0
  4  5  1  0  0  0
  4  6  1  0  0  0
  6  7  1  0  0  0
  6  8  1  0  0  0
  8  9  1  0  0  0
  8 11  1  0  0  0
 10 11  1  0  0  0
 11 12  2  0  0  0
 12 13  1  0  0  0
 13 14  1  0  0  0
 14 15  1  0  0  0
  1 16  1  0  0  0
  2 17  1  0  0  0
  2 18  1  0  0  0
  3 19  1  0  0  0
  4 20  1  0  0  0
  5 21  1  0  0  0
  6 22  1  0  0  0
  7 23  1  0  0  0
  8 24  1  0  0  0
  9 25  1  0  0  0
 10 26  1  0  0  0
 13 27  1  0  0  0
 13 28  1  0  0  0
 14 29  1  0  0  0
 14 30  1  0  0  0
 15 31  1  0  0  0
 15 32  1  0  0  0
 15 33  1  0  0  0
M  END
$$$$
