2fv5_ligand
  -I-interpret- 

 59 62  0  0  0  0  0  0  0  0999 V2000
   12.1820    3.9980   31.8670 C   0  0  0  0  0
   13.4570    4.4610   31.4350 C   0  0  0  0  0
   13.5850    5.7120   30.7660 C   0  0  0  0  0
   12.4340    6.5180   30.5220 C   0  0  0  0  0
   11.1420    6.0780   30.9410 C   0  0  0  0  0
   11.0230    4.7940   31.6330 C   0  0  0  0  0
    9.7540    4.3720   32.0370 N   0  0  0  0  0
    7.3200    4.6240   32.2720 C   0  0  0  0  0
    8.6270    5.1200   31.8210 C   0  0  0  0  0
    8.7060    6.3740   31.1540 C   0  0  0  0  0
    9.9750    6.8730   30.7080 C   0  0  0  0  0
   10.0960    8.2300   29.9750 C   0  0  0  0  0
    8.2760    8.3720   28.3810 C   0  0  0  0  0
    8.8120    8.7940   29.6180 O   0  0  0  0  0
    6.9500    8.7630   28.0490 C   0  0  0  0  0
    6.3630    8.3480   26.8210 C   0  0  0  0  0
    7.1000    7.5410   25.9000 C   0  0  0  0  0
    8.4290    7.1440   26.2290 C   0  0  0  0  0
    9.0150    7.5610   27.4560 C   0  0  0  0  0
    7.4850    7.2440   23.4020 C   0  0  0  0  0
    6.4720    7.1260   24.5820 C   0  0  0  0  0
    5.8210    5.7640   24.7020 C   0  0  0  0  0
    5.3720    8.1150   24.2160 C   0  0  0  0  0
    4.2370    8.1200   24.6690 O   0  0  0  0  0
    7.0480    8.4760   22.5840 C   0  0  0  0  0
    5.3680   10.2910   23.1050 C   0  0  0  0  0
    6.3540   11.2770   23.6950 C   0  0  0  0  0
    5.7890   12.2200   24.4480 N   0  0  0  0  0
    6.5980   13.1710   25.0440 O   0  0  0  0  0
    7.5600   11.1720   23.4830 O   0  0  0  0  0
    5.1470   10.5480   21.6170 C   0  0  0  0  0
    5.8710    8.9460   23.2910 N   0  0  0  0  0
   12.0924    3.0378   32.3751 H   0  0  0  0  0
   14.3430    3.8529   31.6178 H   0  0  0  0  0
   14.5667    6.0547   30.4392 H   0  0  0  0  0
   12.5413    7.4756   30.0126 H   0  0  0  0  0
    7.1048    3.6740   31.7829 H   0  0  0  0  0
    7.3400    4.4815   33.3525 H   0  0  0  0  0
    6.5487    5.3498   32.0142 H   0  0  0  0  0
    7.8011    6.9566   30.9815 H   0  0  0  0  0
   10.6535    8.0620   29.0535 H   0  0  0  0  0
   10.5909    8.9293   30.6489 H   0  0  0  0  0
    6.3796    9.3844   28.7393 H   0  0  0  0  0
    5.3430    8.6480   26.5808 H   0  0  0  0  0
    8.9970    6.5199   25.5391 H   0  0  0  0  0
   10.0352    7.2617   27.6961 H   0  0  0  0  0
    7.4816    6.3429   22.7887 H   0  0  0  0  0
    8.5052    7.3567   23.7688 H   0  0  0  0  0
    6.5734    5.0264   24.9812 H   0  0  0  0  0
    5.0445    5.7999   25.4661 H   0  0  0  0  0
    5.3782    5.4888   23.7448 H   0  0  0  0  0
    6.8427    8.2357   21.5408 H   0  0  0  0  0
    7.8284    9.2341   22.5180 H   0  0  0  0  0
    4.4130   10.4132   23.6161 H   0  0  0  0  0
    4.7781   12.2404   24.5826 H   0  0  0  0  0
    6.0550   13.7792   25.5508 H   0  0  0  0  0
    4.7551   11.5555   21.4779 H   0  0  0  0  0
    6.0948   10.4492   21.0878 H   0  0  0  0  0
    4.4339    9.8222   21.2262 H   0  0  0  0  0
  1  2  4  0  0  0
  6  1  4  0  0  0
  3  2  4  0  0  0
  4  3  4  0  0  0
  5  4  4  0  0  0
  5  6  4  0  0  0
 11  5  4  0  0  0
  6  7  4  0  0  0
  9  7  4  0  0  0
  9  8  1  0  0  0
 10  9  4  0  0  0
 11 10  4  0  0  0
 12 11  1  0  0  0
 14 12  1  0  0  0
 13 14  1  0  0  0
 15 13  4  0  0  0
 19 13  4  0  0  0
 16 15  4  0  0  0
 17 16  4  0  0  0
 17 18  4  0  0  0
 21 17  1  0  0  0
 18 19  4  0  0  0
 20 21  1  0  0  0
 25 20  1  0  0  0
 21 22  1  0  0  0
 23 21  1  0  0  0
 23 24  2  0  0  0
 32 23  1  0  0  0
 32 25  1  0  0  0
 26 27  1  0  0  0
 26 31  1  0  0  0
 26 32  1  0  0  0
 27 28  1  0  0  0
 27 30  2  0  0  0
 28 29  1  0  0  0
  1 33  1  0  0  0
  2 34  1  0  0  0
  3 35  1  0  0  0
  4 36  1  0  0  0
  8 37  1  0  0  0
  8 38  1  0  0  0
  8 39  1  0  0  0
 10 40  1  0  0  0
 12 41  1  0  0  0
 12 42  1  0  0  0
 15 43  1  0  0  0
 16 44  1  0  0  0
 18 45  1  0  0  0
 19 46  1  0  0  0
 20 47  1  0  0  0
 20 48  1  0  0  0
 22 49  1  0  0  0
 22 50  1  0  0  0
 22 51  1  0  0  0
 25 52  1  0  0  0
 25 53  1  0  0  0
 26 54  1  0  0  0
 28 55  1  0  0  0
 29 56  1  0  0  0
 31 57  1  0  0  0
 31 58  1  0  0  0
 31 59  1  0  0  0
M  END
$$$$
