2viv_ligand
  -I-interpret- 

 57 59  0  0  0  0  0  0  0  0999 V2000
   22.9540   13.6740   28.9440 N   0  0  0  0  0
   23.6010   14.2240   27.7480 C   0  0  0  0  0
   22.5750   14.5100   26.6650 C   0  0  0  0  0
   21.5050   15.4620   27.1710 C   0  0  0  0  0
   20.9080   14.9570   28.4730 C   0  0  0  0  0
   21.9980   14.6470   29.4870 C   0  0  0  0  0
   23.8630   13.1370   29.8630 C   0  0  0  0  0
   23.8760   13.5680   31.1820 C   0  0  0  0  0
   24.7920   13.0350   32.0740 C   0  0  0  0  0
   24.8050   13.5740   33.7120 Cl  0  0  0  0  0
   25.7120   12.0810   31.6680 C   0  0  0  0  0
   25.7010   11.6410   30.3570 C   0  0  0  0  0
   26.6200   10.6660   29.9140 N   0  0  0  0  0
   27.1440   10.6310   28.6830 C   0  0  0  0  0
   26.8720   11.4450   27.8340 O   0  0  0  0  0
   28.0640    9.4980   28.3750 C   0  0  0  0  0
   27.8230    8.2310   28.8890 C   0  0  0  0  0
   28.6480    7.1650   28.5730 C   0  0  0  0  0
   28.3650    5.7890   29.1170 C   0  0  0  0  0
   29.7420    7.3850   27.7470 C   0  0  0  0  0
   30.5530    6.3150   27.4810 O   0  0  0  0  0
   31.7010    6.1290   28.3510 C   0  0  0  0  0
   32.2710    4.7470   28.1020 C   0  0  0  0  0
   32.9250    4.6830   26.7690 N   0  3  0  0  0
   30.0170    8.6640   27.2330 C   0  0  0  0  0
   31.2150    8.9030   26.3510 C   0  0  0  0  0
   29.1610    9.7070   27.5510 C   0  0  0  0  0
   24.7850   12.1780   29.4640 C   0  0  0  0  0
   24.3187   13.4960   27.3697 H   0  0  0  0  0
   24.1004   15.1555   28.0147 H   0  0  0  0  0
   22.1013   13.5724   26.3741 H   0  0  0  0  0
   23.0803   14.9697   25.8156 H   0  0  0  0  0
   20.7138   15.5312   26.4244 H   0  0  0  0  0
   21.9568   16.4384   27.3462 H   0  0  0  0  0
   20.3483   14.0439   28.2705 H   0  0  0  0  0
   20.2580   15.7299   28.8831 H   0  0  0  0  0
   22.5303   15.5683   29.7234 H   0  0  0  0  0
   21.5372   14.2259   30.3805 H   0  0  0  0  0
   23.1663   14.3250   31.5157 H   0  0  0  0  0
   26.4379   11.6811   32.3760 H   0  0  0  0  0
   26.9030    9.9417   30.5741 H   0  0  0  0  0
   26.9717    8.0732   29.5511 H   0  0  0  0  0
   28.3873    5.8187   30.2064 H   0  0  0  0  0
   27.3808    5.4623   28.7812 H   0  0  0  0  0
   29.1229    5.0939   28.7557 H   0  0  0  0  0
   31.3983    6.2253   29.3937 H   0  0  0  0  0
   32.4553    6.8871   28.1403 H   0  0  0  0  0
   31.4597    4.0197   28.1325 H   0  0  0  0  0
   33.0126    4.5273   28.8700 H   0  0  0  0  0
   33.3014    3.7466   26.6209 H   0  0  0  0  0
   32.2386    4.8934   26.0444 H   0  0  0  0  0
   33.6823    5.3652   26.7300 H   0  0  0  0  0
   32.1232    8.6469   26.8967 H   0  0  0  0  0
   31.1378    8.2811   25.4592 H   0  0  0  0  0
   31.2476    9.9533   26.0614 H   0  0  0  0  0
   29.3516   10.7022   27.1494 H   0  0  0  0  0
   24.7890   11.8402   28.4277 H   0  0  0  0  0
  1  2  1  0  0  0
  1  6  1  0  0  0
  1  7  1  0  0  0
  2  3  1  0  0  0
  3  4  1  0  0  0
  4  5  1  0  0  0
  5  6  1  0  0  0
  7  8  4  0  0  0
  7 28  4  0  0  0
  8  9  4  0  0  0
  9 10  1  0  0  0
  9 11  4  0  0  0
 11 12  4  0  0  0
 12 13  1  0  0  0
 12 28  4  0  0  0
 13 14  1  0  0  0
 14 15  2  0  0  0
 14 16  1  0  0  0
 16 17  4  0  0  0
 16 27  4  0  0  0
 17 18  4  0  0  0
 18 19  1  0  0  0
 18 20  4  0  0  0
 20 21  1  0  0  0
 20 25  4  0  0  0
 21 22  1  0  0  0
 22 23  1  0  0  0
 23 24  1  0  0  0
 25 26  1  0  0  0
 25 27  4  0  0  0
  2 29  1  0  0  0
  2 30  1  0  0  0
  3 31  1  0  0  0
  3 32  1  0  0  0
  4 33  1  0  0  0
  4 34  1  0  0  0
  5 35  1  0  0  0
  5 36  1  0  0  0
  6 37  1  0  0  0
  6 38  1  0  0  0
  8 39  1  0  0  0
 11 40  1  0  0  0
 13 41  1  0  0  0
 17 42  1  0  0  0
 19 43  1  0  0  0
 19 44  1  0  0  0
 19 45  1  0  0  0
 22 46  1  0  0  0
 22 47  1  0  0  0
 23 48  1  0  0  0
 23 49  1  0  0  0
 24 50  1  0  0  0
 24 51  1  0  0  0
 24 52  1  0  0  0
 26 53  1  0  0  0
 26 54  1  0  0  0
 26 55  1  0  0  0
 27 56  1  0  0  0
 28 57  1  0  0  0
M  END
$$$$
