4agl_ligand
  -I-interpret- 

 25 25  0  0  0  0  0  0  0  0999 V2000
   91.1500   95.7340  -44.9530 C   0  0  0  0  0
   91.5110   95.5430  -43.6140 C   0  0  0  0  0
   91.8830   94.2830  -43.1520 C   0  0  0  0  0
   90.7150   97.0950  -45.4760 C   0  0  0  0  0
   91.3970   98.2310  -44.8270 N   0  3  0  0  0
   91.8960   93.1760  -44.0130 C   0  0  0  0  0
   91.1670   94.6180  -45.8160 C   0  0  0  0  0
   92.7910   98.4320  -45.2710 C   0  0  0  0  0
   91.5360   93.3480  -45.3510 C   0  0  0  0  0
   92.3850   94.0740  -41.1170 I   0  0  0  0  0
   91.5240   96.6270  -42.7800 O   0  0  0  0  0
   91.5360   91.7340  -46.6820 I   0  0  0  0  0
   90.6140   99.4730  -44.9250 C   0  0  0  0  0
   89.6495   97.1960  -45.2698 H   0  0  0  0  0
   90.9651   97.1298  -46.5364 H   0  0  0  0  0
   91.4585   97.9744  -43.8417 H   0  0  0  0  0
   92.1839   92.1924  -43.6418 H   0  0  0  0  0
   90.8885   94.7454  -46.8621 H   0  0  0  0  0
   92.7961   98.7621  -46.3098 H   0  0  0  0  0
   93.2646   99.1888  -44.6456 H   0  0  0  0  0
   93.3376   97.4930  -45.1841 H   0  0  0  0  0
   91.7881   96.3491  -41.8999 H   0  0  0  0  0
   91.0693  100.2386  -44.2967 H   0  0  0  0  0
   90.6008   99.8119  -45.9609 H   0  0  0  0  0
   89.5940   99.2853  -44.5897 H   0  0  0  0  0
  1  2  4  0  0  0
  1  4  1  0  0  0
  1  7  4  0  0  0
  2  3  4  0  0  0
  2 11  1  0  0  0
  3  6  4  0  0  0
  3 10  1  0  0  0
  4  5  1  0  0  0
  5  8  1  0  0  0
  5 13  1  0  0  0
  6  9  4  0  0  0
  7  9  4  0  0  0
  9 12  1  0  0  0
  4 14  1  0  0  0
  4 15  1  0  0  0
  5 16  1  0  0  0
  6 17  1  0  0  0
  7 18  1  0  0  0
  8 19  1  0  0  0
  8 20  1  0  0  0
  8 21  1  0  0  0
 11 22  1  0  0  0
 13 23  1  0  0  0
 13 24  1  0  0  0
 13 25  1  0  0  0
M  END
$$$$
