3bkl_ligand
  -I-interpret- 

 69 72  0  0  0  0  0  0  0  0999 V2000
   44.0270   47.3280   39.3110 C   0  0  0  0  0
   43.0900   46.3710   39.7150 C   0  0  0  0  0
   41.7690   46.5420   39.3440 C   0  0  0  0  0
   41.3680   47.6450   38.5800 C   0  0  0  0  0
   42.2600   48.5980   38.1680 C   0  0  0  0  0
   43.5930   48.4270   38.5420 C   0  0  0  0  0
   44.6900   49.2040   38.2820 N   0  0  0  0  0
   45.7960   48.6270   38.8600 C   0  0  0  0  0
   45.4400   47.4740   39.4980 C   0  0  0  0  0
   46.3430   46.5210   40.2200 C   0  0  0  0  0
   46.8120   47.0180   41.5880 C   0  0  0  0  0
   47.5730   48.3370   41.4420 C   0  0  0  0  0
   48.7380   48.3000   40.9940 O   0  0  0  0  0
   46.9890   49.3890   41.7800 O   0  0  0  0  0
   45.6760   47.1780   42.4880 N   0  0  0  0  0
   45.8720   47.2920   43.7970 C   0  0  0  0  0
   46.9960   47.2770   44.2980 O   0  0  0  0  0
   44.6390   47.4650   44.6780 C   0  0  0  0  0
   45.0680   47.2310   46.1390 C   0  0  0  0  0
   44.7160   45.8110   46.5900 C   0  0  0  0  0
   45.1310   44.8520   45.6130 O   0  0  0  0  0
   43.2970   45.7300   46.7390 O   0  0  0  0  0
   45.3540   45.5030   47.9470 C   0  0  0  0  0
   46.8750   45.6680   47.9210 C   0  0  0  0  0
   47.4990   45.4480   49.2710 C   0  0  0  0  0
   47.7080   46.5100   50.1360 C   0  0  0  0  0
   48.2660   46.3090   51.3850 C   0  0  0  0  0
   48.6220   45.0350   51.7870 C   0  0  0  0  0
   48.4170   43.9670   50.9330 C   0  0  0  0  0
   47.8590   44.1770   49.6860 C   0  0  0  0  0
   45.0470   44.1520   48.4000 N   0  0  0  0  0
   44.0130   43.9120   49.1980 C   0  0  0  0  0
   43.2210   44.7820   49.5600 O   0  0  0  0  0
   43.8360   42.4450   49.5920 C   0  0  0  0  0
   43.0610   42.1030   50.6870 C   0  0  0  0  0
   42.8970   40.7720   51.0230 C   0  0  0  0  0
   43.5040   39.7850   50.2690 C   0  0  0  0  0
   44.2790   40.1280   49.1770 C   0  0  0  0  0
   44.4470   41.4580   48.8390 C   0  0  0  0  0
   43.3946   45.5095   40.3092 H   0  0  0  0  0
   41.0268   45.8054   39.6516 H   0  0  0  0  0
   40.3179   47.7473   38.3062 H   0  0  0  0  0
   41.9422   49.4542   37.5729 H   0  0  0  0  0
   46.8075   49.0306   38.8154 H   0  0  0  0  0
   47.2319   46.3897   39.6030 H   0  0  0  0  0
   45.7767   45.6048   40.3871 H   0  0  0  0  0
   47.4866   46.2762   42.0155 H   0  0  0  0  0
   46.1065   49.1773   42.0931 H   0  0  0  0  0
   44.7283   47.2025   42.1115 H   0  0  0  0  0
   43.8660   46.7518   44.3916 H   0  0  0  0  0
   44.2273   48.4674   44.5603 H   0  0  0  0  0
   44.5431   47.9420   46.7770 H   0  0  0  0  0
   46.1471   47.3655   46.2136 H   0  0  0  0  0
   44.9015   43.9699   45.9144 H   0  0  0  0  0
   43.0561   44.8449   47.0220 H   0  0  0  0  0
   44.9249   46.2261   48.6406 H   0  0  0  0  0
   47.0981   46.6882   47.6088 H   0  0  0  0  0
   47.2830   44.9248   47.2359 H   0  0  0  0  0
   47.4288   47.5175   49.8277 H   0  0  0  0  0
   48.4253   47.1554   52.0530 H   0  0  0  0  0
   49.0616   44.8734   52.7712 H   0  0  0  0  0
   48.6954   42.9598   51.2431 H   0  0  0  0  0
   47.7000   43.3294   49.0194 H   0  0  0  0  0
   45.6372   43.3767   48.0985 H   0  0  0  0  0
   42.5818   42.8804   51.2821 H   0  0  0  0  0
   42.2874   40.5001   51.8847 H   0  0  0  0  0
   43.3715   38.7364   50.5356 H   0  0  0  0  0
   44.7577   39.3499   48.5824 H   0  0  0  0  0
   45.0605   41.7289   47.9797 H   0  0  0  0  0
  1  2  4  0  0  0
  1  6  4  0  0  0
  1  9  4  0  0  0
  2  3  4  0  0  0
  3  4  4  0  0  0
  4  5  4  0  0  0
  5  6  4  0  0  0
  6  7  4  0  0  0
  7  8  4  0  0  0
  8  9  4  0  0  0
  9 10  1  0  0  0
 10 11  1  0  0  0
 11 12  1  0  0  0
 11 15  1  0  0  0
 12 13  2  0  0  0
 12 14  1  0  0  0
 15 16  1  0  0  0
 16 17  2  0  0  0
 16 18  1  0  0  0
 18 19  1  0  0  0
 19 20  1  0  0  0
 20 21  1  0  0  0
 20 22  1  0  0  0
 20 23  1  0  0  0
 23 24  1  0  0  0
 23 31  1  0  0  0
 24 25  1  0  0  0
 25 26  4  0  0  0
 25 30  4  0  0  0
 26 27  4  0  0  0
 27 28  4  0  0  0
 28 29  4  0  0  0
 29 30  4  0  0  0
 31 32  1  0  0  0
 32 33  2  0  0  0
 32 34  1  0  0  0
 34 35  4  0  0  0
 34 39  4  0  0  0
 35 36  4  0  0  0
 36 37  4  0  0  0
 37 38  4  0  0  0
 38 39  4  0  0  0
  2 40  1  0  0  0
  3 41  1  0  0  0
  4 42  1  0  0  0
  5 43  1  0  0  0
  8 44  1  0  0  0
 10 45  1  0  0  0
 10 46  1  0  0  0
 11 47  1  0  0  0
 14 48  1  0  0  0
 15 49  1  0  0  0
 18 50  1  0  0  0
 18 51  1  0  0  0
 19 52  1  0  0  0
 19 53  1  0  0  0
 21 54  1  0  0  0
 22 55  1  0  0  0
 23 56  1  0  0  0
 24 57  1  0  0  0
 24 58  1  0  0  0
 26 59  1  0  0  0
 27 60  1  0  0  0
 28 61  1  0  0  0
 29 62  1  0  0  0
 30 63  1  0  0  0
 31 64  1  0  0  0
 35 65  1  0  0  0
 36 66  1  0  0  0
 37 67  1  0  0  0
 38 68  1  0  0  0
 39 69  1  0  0  0
M  END
$$$$
