4j52_ligand
  -I-interpret- 

 79 83  0  0  0  0  0  0  0  0999 V2000
   30.8930  -36.2540  -20.9970 C   0  0  0  0  0
   31.6400  -35.2380  -20.3010 O   0  0  0  0  0
   32.7110  -35.5950  -19.5290 C   0  0  0  0  0
   33.3410  -36.8310  -19.6730 C   0  0  0  0  0
   34.4360  -37.1550  -18.8520 C   0  0  0  0  0
   34.8660  -36.2230  -17.8880 C   0  0  0  0  0
   34.2400  -34.9910  -17.7460 C   0  0  0  0  0
   33.1490  -34.6760  -18.5680 C   0  0  0  0  0
   32.4240  -33.4750  -18.4990 N   0  0  0  0  0
   32.5130  -32.4540  -17.5680 C   0  0  0  0  0
   31.6980  -31.4220  -17.7160 N   0  0  0  0  0
   31.7510  -30.3830  -16.8770 C   0  0  0  0  0
   32.6580  -30.3940  -15.8350 C   0  0  0  0  0
   32.7200  -29.2580  -14.9970 N   0  0  0  0  0
   32.6870  -27.9330  -15.6350 C   0  0  0  0  0
   32.8720  -29.3010  -13.6470 C   0  0  0  0  0
   32.9350  -28.2430  -13.0110 O   0  0  0  0  0
   32.9240  -30.6140  -12.9190 C   0  0  0  0  0
   33.1210  -30.3230  -11.5820 F   0  0  0  0  0
   34.1100  -31.4860  -13.2840 C   0  0  0  0  0
   34.4760  -31.6510  -14.6920 N   0  0  0  0  0
   35.3710  -32.8260  -14.8190 C   0  0  0  0  0
   36.7380  -32.5670  -14.1100 C   0  0  0  0  0
   37.1130  -33.9350  -13.4900 C   0  0  0  0  0
   35.7670  -34.5370  -13.0760 C   0  0  0  0  0
   34.7790  -34.0920  -14.1610 C   0  0  0  0  0
   33.5130  -31.5240  -15.6960 C   0  0  0  0  0
   33.3930  -32.5000  -16.5790 N   0  0  0  0  0
   31.6280  -31.3880  -13.0370 C   0  0  0  0  0
   30.9830  -31.8270  -11.9800 C   0  0  0  0  0
   35.0900  -38.4880  -18.9920 C   0  0  0  0  0
   35.2990  -38.9730  -20.0770 O   0  0  0  0  0
   35.4090  -39.1820  -17.8830 N   0  0  0  0  0
   35.9800  -40.4260  -17.8780 N   0  3  0  0  0
   37.3320  -40.3750  -17.2860 C   0  0  0  0  0
   37.9700  -41.7600  -17.3910 C   0  0  0  0  0
   37.1180  -42.7090  -16.6570 N   0  3  0  0  0
   37.7540  -44.0260  -16.5430 C   0  0  0  0  0
   35.7560  -42.7750  -17.2250 C   0  0  0  0  0
   35.1160  -41.3820  -17.1540 C   0  0  0  0  0
   31.5538  -36.7825  -21.6841 H   0  0  0  0  0
   30.4795  -36.9580  -20.2748 H   0  0  0  0  0
   30.0823  -35.7877  -21.5569 H   0  0  0  0  0
   32.9863  -37.5427  -20.4185 H   0  0  0  0  0
   35.7065  -36.4731  -17.2406 H   0  0  0  0  0
   34.5936  -34.2764  -17.0028 H   0  0  0  0  0
   31.7354  -33.3354  -19.2384 H   0  0  0  0  0
   31.0830  -29.5326  -17.0140 H   0  0  0  0  0
   33.5358  -27.8359  -16.3119 H   0  0  0  0  0
   31.7588  -27.8243  -16.1961 H   0  0  0  0  0
   32.7420  -27.1604  -14.8681 H   0  0  0  0  0
   33.8315  -32.4859  -12.9512 H   0  0  0  0  0
   34.9684  -30.9900  -12.8309 H   0  0  0  0  0
   35.4948  -32.9802  -15.8909 H   0  0  0  0  0
   36.6676  -31.7812  -13.3579 H   0  0  0  0  0
   37.4985  -32.2088  -14.8038 H   0  0  0  0  0
   37.7961  -33.8326  -12.6468 H   0  0  0  0  0
   37.6519  -34.5721  -14.1913 H   0  0  0  0  0
   35.4601  -34.1957  -12.0873 H   0  0  0  0  0
   35.8182  -35.6231  -12.9988 H   0  0  0  0  0
   34.6370  -34.8804  -14.9002 H   0  0  0  0  0
   33.8009  -33.8806  -13.7288 H   0  0  0  0  0
   31.2184  -31.5867  -14.0274 H   0  0  0  0  0
   31.3787  -31.6371  -10.9823 H   0  0  0  0  0
   30.0522  -32.3812  -12.1008 H   0  0  0  0  0
   35.2107  -38.7491  -16.9809 H   0  0  0  0  0
   36.0736  -40.7480  -18.8413 H   0  0  0  0  0
   37.2654  -40.0780  -16.2394 H   0  0  0  0  0
   37.9416  -39.6466  -17.8208 H   0  0  0  0  0
   38.9730  -41.7462  -16.9645 H   0  0  0  0  0
   38.0531  -42.0585  -18.4360 H   0  0  0  0  0
   37.0111  -42.3576  -15.7054 H   0  0  0  0  0
   37.9381  -44.4266  -17.5398 H   0  0  0  0  0
   38.6994  -43.9266  -16.0096 H   0  0  0  0  0
   37.0954  -44.6999  -15.9951 H   0  0  0  0  0
   35.1550  -43.4847  -16.6564 H   0  0  0  0  0
   35.8066  -43.1034  -18.2631 H   0  0  0  0  0
   34.1264  -41.4055  -17.6103 H   0  0  0  0  0
   35.0139  -41.0741  -16.1134 H   0  0  0  0  0
  1  2  1  0  0  0
  2  3  1  0  0  0
  3  4  4  0  0  0
  3  8  4  0  0  0
  4  5  4  0  0  0
  5  6  4  0  0  0
  5 31  1  0  0  0
  6  7  4  0  0  0
  7  8  4  0  0  0
  8  9  1  0  0  0
  9 10  1  0  0  0
 10 11  4  0  0  0
 10 28  4  0  0  0
 11 12  4  0  0  0
 12 13  4  0  0  0
 13 14  1  0  0  0
 13 27  4  0  0  0
 14 15  1  0  0  0
 14 16  1  0  0  0
 16 17  2  0  0  0
 16 18  1  0  0  0
 18 19  1  0  0  0
 18 20  1  0  0  0
 18 29  1  0  0  0
 20 21  1  0  0  0
 21 22  1  0  0  0
 21 27  1  0  0  0
 22 23  1  0  0  0
 22 26  1  0  0  0
 23 24  1  0  0  0
 24 25  1  0  0  0
 25 26  1  0  0  0
 27 28  4  0  0  0
 29 30  2  0  0  0
 31 32  2  0  0  0
 31 33  1  0  0  0
 33 34  1  0  0  0
 34 35  1  0  0  0
 34 40  1  0  0  0
 35 36  1  0  0  0
 36 37  1  0  0  0
 37 38  1  0  0  0
 37 39  1  0  0  0
 39 40  1  0  0  0
  1 41  1  0  0  0
  1 42  1  0  0  0
  1 43  1  0  0  0
  4 44  1  0  0  0
  6 45  1  0  0  0
  7 46  1  0  0  0
  9 47  1  0  0  0
 12 48  1  0  0  0
 15 49  1  0  0  0
 15 50  1  0  0  0
 15 51  1  0  0  0
 20 52  1  0  0  0
 20 53  1  0  0  0
 22 54  1  0  0  0
 23 55  1  0  0  0
 23 56  1  0  0  0
 24 57  1  0  0  0
 24 58  1  0  0  0
 25 59  1  0  0  0
 25 60  1  0  0  0
 26 61  1  0  0  0
 26 62  1  0  0  0
 29 63  1  0  0  0
 30 64  1  0  0  0
 30 65  1  0  0  0
 33 66  1  0  0  0
 34 67  1  0  0  0
 35 68  1  0  0  0
 35 69  1  0  0  0
 36 70  1  0  0  0
 36 71  1  0  0  0
 37 72  1  0  0  0
 38 73  1  0  0  0
 38 74  1  0  0  0
 38 75  1  0  0  0
 39 76  1  0  0  0
 39 77  1  0  0  0
 40 78  1  0  0  0
 40 79  1  0  0  0
M  END
$$$$
