3sdk_ligand
  -I-interpret- 

 81 84  0  0  0  0  0  0  0  0999 V2000
   13.0760 -136.8700   24.3700 C   0  0  0  0  0
   13.1250 -135.9940   25.3790 C   0  0  0  0  0
   14.0100 -136.1210   26.6260 C   0  0  0  0  0
   12.2610 -134.9570   25.1400 O   0  0  0  0  0
   11.6600 -135.2440   23.8890 N   0  0  0  0  0
   12.1910 -136.3950   23.4770 C   0  0  0  0  0
   11.8110 -137.0920   22.1660 C   0  0  0  0  0
   12.3840 -138.1270   21.8220 O   0  0  0  0  0
   11.1310 -136.7100   18.9990 C   0  0  0  0  0
    6.3280 -137.1890   25.2450 C   0  0  0  0  0
    6.9910 -138.3470   24.5060 C   0  0  0  0  0
    6.0640 -139.5660   24.5640 C   0  0  0  0  0
    8.3390 -138.7150   25.1330 C   0  0  0  0  0
    7.1970 -137.9570   23.0210 C   0  0  0  0  0
    8.2400 -137.2990   22.4940 N   0  0  0  0  0
    6.3240 -138.2580   22.0630 N   0  0  0  0  0
    6.8480 -137.7570   20.8500 O   0  0  0  0  0
    8.0270 -137.1700   21.1680 C   0  0  0  0  0
    8.8840 -136.5190   20.0830 C   0  0  0  0  0
   10.2900 -137.0530   20.2220 C   0  0  0  0  0
   10.8390 -136.5020   21.4720 N   0  0  0  0  0
   11.8210 -135.6970   18.9660 O   0  0  0  0  0
   11.0660 -137.6010   18.0110 N   0  0  0  0  0
   11.8210 -137.4640   16.7520 C   0  0  0  0  0
   10.8530 -137.2000   15.6110 C   0  0  0  0  0
    9.7240 -137.6750   15.6180 O   0  0  0  0  0
   12.5500 -138.7610   16.4370 C   0  0  0  0  0
   13.3990 -139.2260   17.6010 C   0  0  0  0  0
   14.6450 -138.3620   17.7330 C   0  0  0  0  0
   15.5120 -138.2090   16.6510 C   0  0  0  0  0
   14.9140 -137.7230   18.9370 C   0  0  0  0  0
   16.6620 -137.4260   16.7690 C   0  0  0  0  0
   16.0590 -136.9300   19.0580 C   0  0  0  0  0
   16.9330 -136.7860   17.9740 C   0  0  0  0  0
   10.5260 -136.1500   13.4480 C   0  0  0  0  0
    9.8040 -134.8120   13.6220 C   0  0  0  0  0
    8.6620 -134.7120   14.4080 C   0  0  0  0  0
    8.5310 -132.3620   13.8740 C   0  0  0  0  0
   10.2990 -133.6930   12.9620 C   0  0  0  0  0
   11.3340 -136.4650   14.6210 N   0  0  0  0  0
    8.0310 -133.4780   14.5350 C   0  0  0  0  0
    7.8450 -131.0070   14.0050 C   0  0  0  0  0
    9.6660 -132.4640   13.0910 C   0  0  0  0  0
   13.6464 -137.7951   24.2873 H   0  0  0  0  0
   13.7566 -137.0380   27.1580 H   0  0  0  0  0
   15.0572 -136.1515   26.3252 H   0  0  0  0  0
   13.8427 -135.2634   27.2776 H   0  0  0  0  0
    5.3764 -136.9529   24.7687 H   0  0  0  0  0
    6.1555 -137.4733   26.2830 H   0  0  0  0  0
    6.9800 -136.3162   25.2095 H   0  0  0  0  0
    5.8925 -139.8412   25.6046 H   0  0  0  0  0
    5.1134 -139.3208   24.0903 H   0  0  0  0  0
    6.5291 -140.3999   24.0382 H   0  0  0  0  0
    9.0046 -137.8528   25.0923 H   0  0  0  0  0
    8.1870 -139.0096   26.1714 H   0  0  0  0  0
    8.7814 -139.5436   24.5800 H   0  0  0  0  0
    8.8783 -135.4349   20.1962 H   0  0  0  0  0
    8.4863 -136.7534   19.0956 H   0  0  0  0  0
   10.2968 -138.1417   20.2743 H   0  0  0  0  0
   10.4560 -135.6247   21.8242 H   0  0  0  0  0
   10.4655 -138.4167   18.1311 H   0  0  0  0  0
   12.5316 -136.6449   16.8625 H   0  0  0  0  0
   13.2050 -138.5871   15.5832 H   0  0  0  0  0
   11.8063 -139.5296   16.2269 H   0  0  0  0  0
   13.7017 -140.2586   17.4274 H   0  0  0  0  0
   12.8152 -139.1469   18.5181 H   0  0  0  0  0
   15.2900 -138.7046   15.7059 H   0  0  0  0  0
   14.2361 -137.8393   19.7826 H   0  0  0  0  0
   17.3418 -137.3171   15.9239 H   0  0  0  0  0
   16.2718 -136.4225   19.9989 H   0  0  0  0  0
   17.8275 -136.1713   18.0743 H   0  0  0  0  0
   11.1816 -136.0831   12.5797 H   0  0  0  0  0
    9.7810 -136.9346   13.3158 H   0  0  0  0  0
    8.2654 -135.5895   14.9188 H   0  0  0  0  0
   11.1894 -133.7810   12.3395 H   0  0  0  0  0
   12.2891 -136.1116   14.6794 H   0  0  0  0  0
    7.1400 -133.3861   15.1561 H   0  0  0  0  0
    6.8203 -131.0833   13.6414 H   0  0  0  0  0
    7.8387 -130.7041   15.0520 H   0  0  0  0  0
    8.3872 -130.2681   13.4149 H   0  0  0  0  0
   10.0607 -131.5864   12.5790 H   0  0  0  0  0
  1  2  4  0  0  0
  6  1  4  0  0  0
  2  3  1  0  0  0
  4  2  4  0  0  0
  5  4  4  0  0  0
  6  5  4  0  0  0
  7  6  1  0  0  0
  7  8  2  0  0  0
 21  7  1  0  0  0
  9 20  1  0  0  0
  9 22  2  0  0  0
 23  9  1  0  0  0
 11 10  1  0  0  0
 11 12  1  0  0  0
 11 13  1  0  0  0
 14 11  1  0  0  0
 15 14  4  0  0  0
 16 14  4  0  0  0
 18 15  4  0  0  0
 17 16  4  0  0  0
 18 17  4  0  0  0
 19 18  1  0  0  0
 20 19  1  0  0  0
 20 21  1  0  0  0
 24 23  1  0  0  0
 25 24  1  0  0  0
 24 27  1  0  0  0
 25 26  2  0  0  0
 40 25  1  0  0  0
 27 28  1  0  0  0
 28 29  1  0  0  0
 29 30  4  0  0  0
 29 31  4  0  0  0
 30 32  4  0  0  0
 31 33  4  0  0  0
 32 34  4  0  0  0
 33 34  4  0  0  0
 35 36  1  0  0  0
 35 40  1  0  0  0
 36 37  4  0  0  0
 36 39  4  0  0  0
 37 41  4  0  0  0
 41 38  4  0  0  0
 38 42  1  0  0  0
 38 43  4  0  0  0
 39 43  4  0  0  0
  1 44  1  0  0  0
  3 45  1  0  0  0
  3 46  1  0  0  0
  3 47  1  0  0  0
 10 48  1  0  0  0
 10 49  1  0  0  0
 10 50  1  0  0  0
 12 51  1  0  0  0
 12 52  1  0  0  0
 12 53  1  0  0  0
 13 54  1  0  0  0
 13 55  1  0  0  0
 13 56  1  0  0  0
 19 57  1  0  0  0
 19 58  1  0  0  0
 20 59  1  0  0  0
 21 60  1  0  0  0
 23 61  1  0  0  0
 24 62  1  0  0  0
 27 63  1  0  0  0
 27 64  1  0  0  0
 28 65  1  0  0  0
 28 66  1  0  0  0
 30 67  1  0  0  0
 31 68  1  0  0  0
 32 69  1  0  0  0
 33 70  1  0  0  0
 34 71  1  0  0  0
 35 72  1  0  0  0
 35 73  1  0  0  0
 37 74  1  0  0  0
 39 75  1  0  0  0
 40 76  1  0  0  0
 41 77  1  0  0  0
 42 78  1  0  0  0
 42 79  1  0  0  0
 42 80  1  0  0  0
 43 81  1  0  0  0
M  END
$$$$
