4n8q_ligand
  -I-interpret- 

 17 17  0  0  0  0  0  0  0  0999 V2000
  -17.8390  -36.8710   17.5620 O   0  0  0  0  0
  -18.5290  -35.8240   17.5760 C   0  0  0  0  0
  -19.4930  -35.6370   18.3450 O   0  0  0  0  0
  -18.1980  -34.6730   16.6100 C   0  0  0  0  0
  -18.7740  -33.4110   16.8320 C   0  0  0  0  0
  -18.5000  -32.3410   15.9700 C   0  0  0  0  0
  -17.6540  -32.5390   14.8730 C   0  0  0  0  0
  -17.3580  -31.5180   14.0390 F   0  0  0  0  0
  -17.0840  -33.7920   14.6490 C   0  0  0  0  0
  -17.3450  -34.8590   15.5140 C   0  0  0  0  0
  -16.7790  -36.0450   15.2690 N   0  0  0  0  0
  -17.1551  -36.7932   16.8928 H   0  0  0  0  0
  -19.4398  -33.2630   17.6822 H   0  0  0  0  0
  -18.9425  -31.3617   16.1525 H   0  0  0  0  0
  -16.4285  -33.9409   13.7910 H   0  0  0  0  0
  -16.9651  -36.8360   15.8855 H   0  0  0  0  0
  -16.1610  -36.1589   14.4655 H   0  0  0  0  0
  1  2  1  0  0  0
  2  3  2  0  0  0
  2  4  1  0  0  0
  4  5  4  0  0  0
  4 10  4  0  0  0
  5  6  4  0  0  0
  6  7  4  0  0  0
  7  8  1  0  0  0
  7  9  4  0  0  0
  9 10  4  0  0  0
 10 11  1  0  0  0
  1 12  1  0  0  0
  5 13  1  0  0  0
  6 14  1  0  0  0
  9 15  1  0  0  0
 11 16  1  0  0  0
 11 17  1  0  0  0
M  END
$$$$
