5j8i_ligand
  -I-interpret- 

 61 64  0  0  0  0  0  0  0  0999 V2000
  -16.2120  -49.1900  -18.2720 C   0  0  0  0  0
  -18.9530  -48.6430  -18.4300 C   0  0  0  0  0
  -18.1110  -47.8400  -17.6450 C   0  0  0  0  0
  -16.7380  -48.1220  -17.5640 C   0  0  0  0  0
  -14.5830  -47.6040  -16.2210 C   0  0  0  0  0
  -12.7050  -46.8330  -15.1030 C   0  0  0  0  0
  -12.1670  -48.0880  -15.2070 C   0  0  0  0  0
  -12.9040  -49.1020  -15.8520 C   0  0  0  0  0
  -21.5710  -53.0520  -22.2310 C   0  0  0  0  0
  -20.8690  -52.3470  -21.4180 N   0  3  0  0  0
  -21.3340  -51.0730  -21.3910 C   0  0  0  0  0
  -20.6750  -50.2540  -20.2550 C   0  0  0  0  0
  -19.5380  -52.3840  -21.8020 C   0  0  0  0  0
  -18.6800  -51.3000  -21.1260 C   0  0  0  0  0
  -19.2830  -50.6110  -19.9890 N   0  0  0  0  0
  -18.4120  -49.7300  -19.1360 C   0  0  0  0  0
  -17.0610  -50.0030  -19.0640 C   0  0  0  0  0
  -15.8750  -47.2510  -16.7340 N   0  0  0  0  0
  -13.9000  -46.6340  -15.6140 N   0  0  0  0  0
  -10.5530  -48.4260  -14.5350 Cl  0  0  0  0  0
  -12.3400  -50.3930  -15.9470 O   0  0  0  0  0
  -12.7460  -51.1240  -17.0890 C   0  0  0  0  0
  -13.9080  -51.8690  -17.0660 C   0  0  0  0  0
  -14.2950  -52.6160  -18.2220 C   0  0  0  0  0
  -13.4890  -52.6090  -19.3930 C   0  0  0  0  0
  -12.3110  -51.8680  -19.4140 C   0  0  0  0  0
  -11.9270  -51.1290  -18.2690 C   0  0  0  0  0
  -10.6910  -50.3620  -18.3040 N   0  0  0  0  0
   -9.4390  -51.0040  -18.6600 C   0  0  0  0  0
   -8.1910  -50.1450  -18.6670 C   0  0  0  0  0
   -8.4720  -48.8640  -17.7520 C   0  0  0  0  0
   -9.3770  -52.1440  -18.9270 O   0  0  0  0  0
  -14.0960  -48.8180  -16.3360 N   0  0  0  0  0
  -15.1447  -49.4053  -18.2201 H   0  0  0  0  0
  -20.0191  -48.4246  -18.4913 H   0  0  0  0  0
  -18.5247  -46.9941  -17.0961 H   0  0  0  0  0
  -12.1606  -46.0258  -14.6129 H   0  0  0  0  0
  -22.6105  -53.0551  -21.9030 H   0  0  0  0  0
  -21.5055  -52.6236  -23.2312 H   0  0  0  0  0
  -21.1904  -54.0733  -22.2462 H   0  0  0  0  0
  -20.9444  -52.7319  -20.4764 H   0  0  0  0  0
  -22.4098  -51.1012  -21.2177 H   0  0  0  0  0
  -21.0960  -50.5978  -22.3427 H   0  0  0  0  0
  -21.2386  -50.4561  -19.3442 H   0  0  0  0  0
  -20.6855  -49.2088  -20.5642 H   0  0  0  0  0
  -19.5002  -52.2113  -22.8776 H   0  0  0  0  0
  -19.1366  -53.3536  -21.5073 H   0  0  0  0  0
  -18.5039  -50.5367  -21.8840 H   0  0  0  0  0
  -17.7981  -51.8099  -20.7382 H   0  0  0  0  0
  -16.6461  -50.8455  -19.6173 H   0  0  0  0  0
  -16.2292  -46.3216  -16.5080 H   0  0  0  0  0
  -14.5282  -51.8877  -16.1698 H   0  0  0  0  0
  -15.2173  -53.1967  -18.2053 H   0  0  0  0  0
  -13.7920  -53.1810  -20.2700 H   0  0  0  0  0
  -11.6871  -51.8567  -20.3077 H   0  0  0  0  0
  -10.7045  -49.3677  -18.0771 H   0  0  0  0  0
   -7.9500  -49.8370  -19.6844 H   0  0  0  0  0
   -7.3426  -50.7082  -18.2783 H   0  0  0  0  0
   -9.3166  -48.3073  -18.1580 H   0  0  0  0  0
   -8.7027  -49.1876  -16.7370 H   0  0  0  0  0
   -7.5876  -48.2270  -17.7394 H   0  0  0  0  0
  4  1  4  0  0  0
  1 17  4  0  0  0
  2  3  4  0  0  0
 16  2  4  0  0  0
  3  4  4  0  0  0
  4 18  1  0  0  0
 18  5  1  0  0  0
  5 19  4  0  0  0
  5 33  4  0  0  0
  6  7  4  0  0  0
 19  6  4  0  0  0
  8  7  4  0  0  0
  7 20  1  0  0  0
  8 21  1  0  0  0
 33  8  4  0  0  0
 10  9  1  0  0  0
 11 10  1  0  0  0
 13 10  1  0  0  0
 12 11  1  0  0  0
 15 12  1  0  0  0
 14 13  1  0  0  0
 15 14  1  0  0  0
 15 16  1  0  0  0
 16 17  4  0  0  0
 21 22  1  0  0  0
 22 23  4  0  0  0
 22 27  4  0  0  0
 23 24  4  0  0  0
 24 25  4  0  0  0
 25 26  4  0  0  0
 26 27  4  0  0  0
 27 28  1  0  0  0
 28 29  1  0  0  0
 29 30  1  0  0  0
 29 32  2  0  0  0
 30 31  1  0  0  0
  1 34  1  0  0  0
  2 35  1  0  0  0
  3 36  1  0  0  0
  6 37  1  0  0  0
  9 38  1  0  0  0
  9 39  1  0  0  0
  9 40  1  0  0  0
 10 41  1  0  0  0
 11 42  1  0  0  0
 11 43  1  0  0  0
 12 44  1  0  0  0
 12 45  1  0  0  0
 13 46  1  0  0  0
 13 47  1  0  0  0
 14 48  1  0  0  0
 14 49  1  0  0  0
 17 50  1  0  0  0
 18 51  1  0  0  0
 23 52  1  0  0  0
 24 53  1  0  0  0
 25 54  1  0  0  0
 26 55  1  0  0  0
 28 56  1  0  0  0
 30 57  1  0  0  0
 30 58  1  0  0  0
 31 59  1  0  0  0
 31 60  1  0  0  0
 31 61  1  0  0  0
M  END
$$$$
