4tw6_ligand
  -I-interpret- 

 98101  0  0  0  0  0  0  0  0999 V2000
  -12.0260    8.6260   -5.9170 C   0  0  0  0  0
  -13.2330    7.8510   -5.6910 O   0  0  0  0  0
  -13.7270    7.1770   -6.7480 C   0  0  0  0  0
  -13.1270    7.1420   -8.0250 C   0  0  0  0  0
  -14.8480    6.4410   -6.5940 C   0  0  0  0  0
  -15.4760    6.4170   -5.3150 O   0  0  0  0  0
  -16.4710    7.4080   -5.2630 C   0  0  0  0  0
  -15.3860    5.7180   -7.5890 C   0  0  0  0  0
  -16.5500    4.9740   -7.3400 O   0  0  0  0  0
  -17.0870    4.2690   -8.4130 C   0  0  0  0  0
  -14.7730    5.6620   -8.8580 C   0  0  0  0  0
  -13.5990    6.3830   -9.0340 C   0  0  0  0  0
  -12.8610    6.3610  -10.3790 C   0  0  0  0  0
  -13.7660    6.9900  -11.4670 C   0  0  0  0  0
  -13.0890    7.0260  -12.7530 C   0  0  0  0  0
  -12.9580    8.0880  -13.5540 C   0  0  0  0  0
  -12.5610    4.8840  -10.7520 C   0  0  0  0  0
  -13.2960    4.2300  -11.4590 O   0  0  0  0  0
  -11.4820    4.3190  -10.1820 N   0  0  0  0  0
  -10.6810    4.9460   -9.1570 C   0  0  0  0  0
   -9.1790    4.6260   -9.3030 C   0  0  0  0  0
   -8.9370    3.1470   -9.4770 C   0  0  0  0  0
   -9.7750    2.5990  -10.5920 C   0  0  0  0  0
  -11.2640    2.8870  -10.4110 C   0  0  0  0  0
  -11.7410    1.9980   -9.2400 C   0  0  0  0  0
  -11.4290    0.8430   -9.1930 O   0  0  0  0  0
  -12.5200    2.6020   -8.4000 O   0  0  0  0  0
  -12.8910    1.8630   -7.1420 C   0  0  0  0  0
  -14.3520    1.8730   -7.0120 C   0  0  0  0  0
  -14.8860    0.7830   -5.9180 C   0  0  0  0  0
  -14.8370   -0.5780   -6.3670 C   0  0  0  0  0
  -15.9390   -0.9570   -7.1850 C   0  0  0  0  0
  -13.8110   -1.4620   -6.1780 C   0  0  0  0  0
  -13.7240   -2.7290   -6.7160 C   0  0  0  0  0
  -14.7660   -3.1260   -7.5510 C   0  0  0  0  0
  -14.6870   -4.4320   -8.1410 O   0  0  0  0  0
  -13.7390   -5.3640   -7.8060 C   0  0  0  0  0
  -15.8350   -2.2310   -7.7230 C   0  0  0  0  0
  -17.0190   -2.7140   -8.4240 O   0  0  0  0  0
  -18.1150   -1.8600   -8.2350 C   0  0  0  0  0
  -12.0600    2.4570   -6.0170 C   0  0  0  0  0
  -11.1050    1.7260   -5.3790 C   0  0  0  0  0
  -12.2280    3.7990   -5.7390 C   0  0  0  0  0
  -11.4600    4.3750   -4.7890 C   0  0  0  0  0
  -10.4830    3.6390   -4.1660 C   0  0  0  0  0
  -10.3330    2.2750   -4.4440 C   0  0  0  0  0
   -9.3540    1.4870   -3.8910 O   0  0  0  0  0
   -8.4380    2.1140   -3.0260 C   0  0  0  0  0
   -9.0660    2.3530   -1.7600 C   0  0  0  0  0
   -8.3710    3.2440   -1.1650 O   0  0  0  0  0
  -10.1460    1.8370   -1.3540 O   0  0  0  0  0
  -11.2260    7.9626   -6.2457 H   0  0  0  0  0
  -12.2159    9.3763   -6.6845 H   0  0  0  0  0
  -11.7332    9.1188   -4.9899 H   0  0  0  0  0
  -12.2437    7.7553   -8.2030 H   0  0  0  0  0
  -16.0175    8.3854   -5.4275 H   0  0  0  0  0
  -17.2141    7.2159   -6.0370 H   0  0  0  0  0
  -16.9505    7.3886   -4.2843 H   0  0  0  0  0
  -17.3469    4.9655   -9.2102 H   0  0  0  0  0
  -16.3518    3.5528   -8.7799 H   0  0  0  0  0
  -17.9814    3.7385   -8.0864 H   0  0  0  0  0
  -15.2040    5.0755   -9.6694 H   0  0  0  0  0
  -11.9318    6.9265  -10.3085 H   0  0  0  0  0
  -14.0091    8.0107  -11.1717 H   0  0  0  0  0
  -14.6675    6.3850  -11.5638 H   0  0  0  0  0
  -12.6435    6.0932  -13.0988 H   0  0  0  0  0
  -13.3832    9.0478  -13.2605 H   0  0  0  0  0
  -12.4260    7.9943  -14.5007 H   0  0  0  0  0
  -11.0135    4.5662   -8.1909 H   0  0  0  0  0
  -10.8052    6.0252   -9.2462 H   0  0  0  0  0
   -8.6689    4.9529   -8.3969 H   0  0  0  0  0
   -8.8027    5.1415  -10.1866 H   0  0  0  0  0
   -9.2041    2.6357   -8.5522 H   0  0  0  0  0
   -7.8855    2.9884   -9.7165 H   0  0  0  0  0
   -9.6440    1.5170  -10.6070 H   0  0  0  0  0
   -9.4529    3.0769  -11.5172 H   0  0  0  0  0
  -11.8442    2.6485  -11.3024 H   0  0  0  0  0
  -12.6486    0.8003   -7.1340 H   0  0  0  0  0
  -14.7791    1.6157   -7.9813 H   0  0  0  0  0
  -14.6544    2.8648   -6.6759 H   0  0  0  0  0
  -15.9316    1.0166   -5.7172 H   0  0  0  0  0
  -14.2339    0.8568   -5.0477 H   0  0  0  0  0
  -16.7904   -0.3027   -7.3721 H   0  0  0  0  0
  -12.9865   -1.1355   -5.5442 H   0  0  0  0  0
  -12.8823   -3.3866   -6.4988 H   0  0  0  0  0
  -12.7472   -4.9622   -8.0132 H   0  0  0  0  0
  -13.8224   -5.6001   -6.7452 H   0  0  0  0  0
  -13.8964   -6.2681   -8.3942 H   0  0  0  0  0
  -18.3458   -1.7970   -7.1716 H   0  0  0  0  0
  -17.8706   -0.8678   -8.6144 H   0  0  0  0  0
  -18.9776   -2.2536   -8.7726 H   0  0  0  0  0
  -10.9706    0.6757   -5.6377 H   0  0  0  0  0
  -12.9708    4.3859   -6.2792 H   0  0  0  0  0
  -11.6152    5.4194   -4.5183 H   0  0  0  0  0
   -9.8183    4.1206   -3.4488 H   0  0  0  0  0
   -8.1189    3.0621   -3.4589 H   0  0  0  0  0
   -7.5700    1.4698   -2.8859 H   0  0  0  0  0
   -7.5999    3.4546   -1.6966 H   0  0  0  0  0
  1  2  1  0  0  0
  2  3  1  0  0  0
  3  4  4  0  0  0
  3  5  4  0  0  0
  4 12  4  0  0  0
  5  6  1  0  0  0
  5  8  4  0  0  0
  6  7  1  0  0  0
  8  9  1  0  0  0
  8 11  4  0  0  0
  9 10  1  0  0  0
 11 12  4  0  0  0
 12 13  1  0  0  0
 13 14  1  0  0  0
 13 17  1  0  0  0
 14 15  1  0  0  0
 15 16  2  0  0  0
 17 18  2  0  0  0
 17 19  1  0  0  0
 19 20  1  0  0  0
 19 24  1  0  0  0
 20 21  1  0  0  0
 21 22  1  0  0  0
 22 23  1  0  0  0
 23 24  1  0  0  0
 24 25  1  0  0  0
 25 26  2  0  0  0
 25 27  1  0  0  0
 27 28  1  0  0  0
 28 29  1  0  0  0
 28 41  1  0  0  0
 29 30  1  0  0  0
 30 31  1  0  0  0
 31 32  4  0  0  0
 31 33  4  0  0  0
 32 38  4  0  0  0
 33 34  4  0  0  0
 34 35  4  0  0  0
 35 36  1  0  0  0
 35 38  4  0  0  0
 36 37  1  0  0  0
 38 39  1  0  0  0
 39 40  1  0  0  0
 41 42  4  0  0  0
 41 43  4  0  0  0
 42 46  4  0  0  0
 43 44  4  0  0  0
 44 45  4  0  0  0
 45 46  4  0  0  0
 46 47  1  0  0  0
 47 48  1  0  0  0
 48 49  1  0  0  0
 49 50  1  0  0  0
 49 51  2  0  0  0
  1 52  1  0  0  0
  1 53  1  0  0  0
  1 54  1  0  0  0
  4 55  1  0  0  0
  7 56  1  0  0  0
  7 57  1  0  0  0
  7 58  1  0  0  0
 10 59  1  0  0  0
 10 60  1  0  0  0
 10 61  1  0  0  0
 11 62  1  0  0  0
 13 63  1  0  0  0
 14 64  1  0  0  0
 14 65  1  0  0  0
 15 66  1  0  0  0
 16 67  1  0  0  0
 16 68  1  0  0  0
 20 69  1  0  0  0
 20 70  1  0  0  0
 21 71  1  0  0  0
 21 72  1  0  0  0
 22 73  1  0  0  0
 22 74  1  0  0  0
 23 75  1  0  0  0
 23 76  1  0  0  0
 24 77  1  0  0  0
 28 78  1  0  0  0
 29 79  1  0  0  0
 29 80  1  0  0  0
 30 81  1  0  0  0
 30 82  1  0  0  0
 32 83  1  0  0  0
 33 84  1  0  0  0
 34 85  1  0  0  0
 37 86  1  0  0  0
 37 87  1  0  0  0
 37 88  1  0  0  0
 40 89  1  0  0  0
 40 90  1  0  0  0
 40 91  1  0  0  0
 42 92  1  0  0  0
 43 93  1  0  0  0
 44 94  1  0  0  0
 45 95  1  0  0  0
 48 96  1  0  0  0
 48 97  1  0  0  0
 50 98  1  0  0  0
M  END
$$$$
