5WYS_LIGAND
  -I-interpret- 

 36 37  0  0  0  0  0  0  0  0999 V2000
  -16.0180   35.7740   -0.3150 C   0  0  0  0  0
  -16.9900   37.9850    1.1000 C   0  0  0  0  0
  -16.6340   36.8360   -0.9760 C   0  0  0  0  0
  -10.1470   30.4830   -1.0440 C   0  0  0  0  0
  -11.1470   30.0550   -1.8940 C   0  0  0  0  0
  -12.2640   30.8590   -2.0480 C   0  0  0  0  0
  -12.4490   32.0740   -1.3990 C   0  0  0  0  0
  -11.4320   32.4930   -0.5480 C   0  0  0  0  0
  -10.2900   31.7020   -0.3700 C   0  0  0  0  0
  -13.7570   32.8600   -1.6810 C   0  0  0  0  0
  -14.1260   34.0260   -0.7590 C   0  0  0  0  0
  -13.7670   33.3360   -3.0030 O   0  0  0  0  0
  -15.5100   34.5750   -1.1310 C   0  0  0  0  0
  -15.9060   35.8260    1.0720 C   0  0  0  0  0
  -16.3850   36.9280    1.7790 C   0  0  0  0  0
  -17.1100   37.9380   -0.2720 C   0  0  0  0  0
  -17.4850   39.1190    1.7580 O   0  0  0  0  0
  -17.7870   39.1080   -0.9740 C   0  0  0  0  0
   -8.8700   29.5860   -0.8520 B   0  0  0  0  0
  -17.4050   40.2900   -0.7710 O   0  0  0  0  0
  -18.7430   38.8810   -1.7490 O   0  0  0  0  0
  -16.7443   36.8026   -2.0599 H   0  0  0  0  0
  -11.0598   29.1097   -2.4295 H   0  0  0  0  0
  -13.0492   30.5167   -2.7221 H   0  0  0  0  0
  -11.5240   33.4407   -0.0175 H   0  0  0  0  0
   -9.5016   32.0400    0.3025 H   0  0  0  0  0
  -14.5154   32.1032   -1.4806 H   0  0  0  0  0
  -13.3854   34.8180   -0.8700 H   0  0  0  0  0
  -14.1463   33.6739    0.2724 H   0  0  0  0  0
  -14.5812   33.8193   -3.1618 H   0  0  0  0  0
  -15.4279   34.9249   -2.1600 H   0  0  0  0  0
  -16.2148   33.7646   -0.9450 H   0  0  0  0  0
  -15.4406   34.9993    1.6087 H   0  0  0  0  0
  -16.2864   36.9634    2.8640 H   0  0  0  0  0
  -17.8596   39.7237    1.1133 H   0  0  0  0  0
  -16.6679   40.2857   -0.1559 H   0  0  0  0  0
  1  3  4  0  0  0
 13  1  1  0  0  0
  1 14  4  0  0  0
  2 15  4  0  0  0
 16  2  4  0  0  0
  2 17  1  0  0  0
  3 16  4  0  0  0
  5  4  4  0  0  0
  9  4  4  0  0  0
  4 19  1  0  0  0
  6  5  4  0  0  0
  7  6  4  0  0  0
  7  8  4  0  0  0
 10  7  1  0  0  0
  8  9  4  0  0  0
 11 10  1  0  0  0
 10 12  1  0  0  0
 11 13  1  0  0  0
 14 15  4  0  0  0
 16 18  1  0  0  0
 18 20  1  0  0  0
 18 21  2  0  0  0
  3 22  1  0  0  0
  5 23  1  0  0  0
  6 24  1  0  0  0
  8 25  1  0  0  0
  9 26  1  0  0  0
 10 27  1  0  0  0
 11 28  1  0  0  0
 11 29  1  0  0  0
 12 30  1  0  0  0
 13 31  1  0  0  0
 13 32  1  0  0  0
 14 33  1  0  0  0
 15 34  1  0  0  0
 17 35  1  0  0  0
 20 36  1  0  0  0
M  END
$$$$
