### 
### Created by X-TOOL on Mon Sep 10 21:13:33 2018
### 

@<TRIPOS>MOLECULE
5WYS_LIGAND
   35    36     1     0     0
SMALL
GAST_HUCK


@<TRIPOS>ATOM
      1 C10       -16.0180   35.7740   -0.3150 C.ar      1 7V6        -0.0499
      2 C13       -16.9900   37.9850    1.1000 C.ar      1 7V6         0.0959
      3 C15       -16.6340   36.8360   -0.9760 C.ar      1 7V6        -0.0544
      4 C01       -10.1470   30.4830   -1.0440 C.ar      1 7V6        -0.1474
      5 C02       -11.1470   30.0550   -1.8940 C.ar      1 7V6        -0.1773
      6 C03       -12.2640   30.8590   -2.0480 C.ar      1 7V6        -0.1722
      7 C04       -12.4490   32.0740   -1.3990 C.ar      1 7V6        -0.1137
      8 C05       -11.4320   32.4930   -0.5480 C.ar      1 7V6        -0.1722
      9 C06       -10.2900   31.7020   -0.3700 C.ar      1 7V6        -0.1773
     10 C07       -13.7570   32.8600   -1.6810 C.3       1 7V6         0.0729
     11 C08       -14.1260   34.0260   -0.7590 C.3       1 7V6        -0.0100
     12 O01       -13.7670   33.3360   -3.0030 O.3       1 7V6        -0.3807
     13 C09       -15.5100   34.5750   -1.1310 C.3       1 7V6        -0.0195
     14 C11       -15.9060   35.8260    1.0720 C.ar      1 7V6        -0.0659
     15 C12       -16.3850   36.9280    1.7790 C.ar      1 7V6        -0.0356
     16 C14       -17.1100   37.9380   -0.2720 C.ar      1 7V6         0.0321
     17 O02       -17.4850   39.1190    1.7580 O.3       1 7V6        -0.3340
     18 C16       -17.7870   39.1080   -0.9740 C.2       1 7V6         0.0566
     19 B          -8.8700   29.5860   -0.8520 B         1 7V6         1.0000
     20 O03       -17.4050   40.2900   -0.7710 O.co2     1 7V6        -0.5643
     21 O04       -18.7430   38.8810   -1.7490 O.co2     1 7V6        -0.5643
     22 H         -16.7443   36.8026   -2.0599 H         1 7V6         0.0562
     23 H         -11.0598   29.1097   -2.4295 H         1 7V6        -0.0142
     24 H         -13.0492   30.5167   -2.7221 H         1 7V6        -0.0188
     25 H         -11.5240   33.4407   -0.0175 H         1 7V6        -0.0188
     26 H          -9.5016   32.0400    0.3025 H         1 7V6        -0.0142
     27 H         -14.5154   32.1032   -1.4806 H         1 7V6         0.0743
     28 H         -13.3854   34.8180   -0.8700 H         1 7V6         0.0332
     29 H         -14.1463   33.6739    0.2724 H         1 7V6         0.0332
     30 H         -13.5380   32.6208   -3.6012 H         1 7V6         0.2129
     31 H         -15.4279   34.9249   -2.1600 H         1 7V6         0.0408
     32 H         -16.2148   33.7646   -0.9450 H         1 7V6         0.0408
     33 H         -15.4406   34.9993    1.6087 H         1 7V6         0.0553
     34 H         -16.2864   36.9634    2.8640 H         1 7V6         0.0533
     35 H         -17.0269   39.8992    1.4372 H         1 7V6         0.2475
@<TRIPOS>BOND
     1    1    3 ar 
     2   13    1 1  
     3    1   14 ar 
     4    2   15 ar 
     5   16    2 ar 
     6    2   17 1  
     7    3   16 ar 
     8    5    4 ar 
     9    9    4 ar 
    10    4   19 1  
    11    6    5 ar 
    12    7    6 ar 
    13    7    8 ar 
    14   10    7 1  
    15    8    9 ar 
    16   11   10 1  
    17   10   12 1  
    18   11   13 1  
    19   14   15 ar 
    20   16   18 1  
    21   18   20 ar 
    22   18   21 ar 
    23    3   22 1  
    24    5   23 1  
    25    6   24 1  
    26    8   25 1  
    27    9   26 1  
    28   10   27 1  
    29   11   28 1  
    30   11   29 1  
    31   12   30 1  
    32   13   31 1  
    33   13   32 1  
    34   14   33 1  
    35   15   34 1  
    36   17   35 1  
@<TRIPOS>SUBSTRUCTURE
     1 7V6         1

