3bug_ligand
  -I-interpret- 

 28 28  0  0  0  0  0  0  0  0999 V2000
  -21.8880   42.5680   89.8670 C   0  0  0  0  0
  -18.9760   40.4590   91.1360 C   0  0  0  0  0
  -20.9740   39.8150   92.3530 C   0  0  0  0  0
  -21.9620   42.2620   88.3660 C   0  0  0  0  0
  -17.5030   40.2880   90.8800 C   0  0  0  0  0
  -15.4220   39.9580   92.2110 N   0  3  0  0  0
  -23.0310   40.8860   91.8710 O   0  0  0  0  0
  -21.6890   40.7550   91.6160 C   0  0  0  0  0
  -19.6090   39.6690   92.1070 C   0  0  0  0  0
  -16.6670   40.7980   92.0590 C   0  0  0  0  0
  -19.7080   41.4010   90.4010 C   0  0  0  0  0
  -21.0780   41.5560   90.6360 C   0  0  0  0  0
  -22.9044   42.5474   90.2603 H   0  0  0  0  0
  -21.4048   43.5380   89.9844 H   0  0  0  0  0
  -21.4711   39.2052   93.1074 H   0  0  0  0  0
  -20.9555   42.2562   87.9476 H   0  0  0  0  0
  -22.4241   41.2860   88.2178 H   0  0  0  0  0
  -22.5588   43.0271   87.8695 H   0  0  0  0  0
  -17.2370   40.8629   89.9930 H   0  0  0  0  0
  -17.2966   39.2265   90.7431 H   0  0  0  0  0
  -14.8730   40.3051   92.9975 H   0  0  0  0  0
  -15.6866   38.9878   92.3814 H   0  0  0  0  0
  -14.8681   40.0155   91.3564 H   0  0  0  0  0
  -23.3998   41.5626   91.2985 H   0  0  0  0  0
  -19.0313   38.9375   92.6720 H   0  0  0  0  0
  -17.2578   40.7319   92.9726 H   0  0  0  0  0
  -16.3806   41.8333   91.8741 H   0  0  0  0  0
  -19.2107   42.0118   89.6475 H   0  0  0  0  0
  1  4  1  0  0  0
 12  1  1  0  0  0
  2  5  1  0  0  0
  9  2  4  0  0  0
  2 11  4  0  0  0
  8  3  4  0  0  0
  3  9  4  0  0  0
  5 10  1  0  0  0
 10  6  1  0  0  0
  8  7  1  0  0  0
  8 12  4  0  0  0
 11 12  4  0  0  0
  1 13  1  0  0  0
  1 14  1  0  0  0
  3 15  1  0  0  0
  4 16  1  0  0  0
  4 17  1  0  0  0
  4 18  1  0  0  0
  5 19  1  0  0  0
  5 20  1  0  0  0
  6 21  1  0  0  0
  6 22  1  0  0  0
  6 23  1  0  0  0
  7 24  1  0  0  0
  9 25  1  0  0  0
 10 26  1  0  0  0
 10 27  1  0  0  0
 11 28  1  0  0  0
M  END
$$$$
