4rwk_ligand
  -I-interpret- 

 67 70  0  0  0  0  0  0  0  0999 V2000
  -28.2930   -8.6190   15.3990 C   0  0  0  0  0
  -25.1620   -6.5480   15.6270 N   0  0  0  0  0
  -19.2830   -7.8330   13.7720 O   0  0  0  0  0
  -27.3670   -7.3960   15.3840 C   0  0  0  0  0
  -27.9430   -6.2820   16.1550 N   0  3  0  0  0
  -17.6530   -7.8750    8.1720 O   0  0  0  0  0
  -25.9700   -7.7240   15.9450 C   0  0  0  0  0
  -18.9620   -5.6340   14.2320 N   0  0  0  0  0
  -14.4000  -10.7730   10.1540 O   0  0  0  0  0
  -25.6880   -5.2480   16.2130 C   0  0  0  0  0
  -15.7730   -4.4680   13.7030 N   0  0  0  0  0
  -27.1960   -5.0320   15.9650 C   0  0  0  0  0
  -16.9930   -4.3800   14.1210 N   0  0  0  0  0
  -27.7340   -3.8990   16.8630 C   0  0  0  0  0
  -23.8430   -6.5630   15.3100 C   0  0  0  0  0
  -22.9290   -5.6710   15.9010 C   0  0  0  0  0
  -21.5820   -5.7210   15.5440 C   0  0  0  0  0
  -21.1320   -6.6460   14.6080 C   0  0  0  0  0
  -22.0540   -7.5120   14.0430 C   0  0  0  0  0
  -23.3930   -7.4780   14.3830 C   0  0  0  0  0
  -19.7120   -6.7680   14.1670 C   0  0  0  0  0
  -17.6520   -5.5090   13.8760 C   0  0  0  0  0
  -16.8280   -6.3550   13.2740 C   0  0  0  0  0
  -15.6580   -5.7110   13.1620 C   0  0  0  0  0
  -14.3480   -6.1540   12.5780 C   0  0  0  0  0
  -14.2400   -5.9980   11.0760 C   0  0  0  0  0
  -14.8790   -7.1910   10.3970 C   0  0  0  0  0
  -14.3610   -8.4710   10.5710 C   0  0  0  0  0
  -14.9500   -9.5640    9.9430 C   0  0  0  0  0
  -16.0670   -9.3850    9.1240 C   0  0  0  0  0
  -16.5740   -8.1140    8.9520 C   0  0  0  0  0
  -15.9870   -7.0240    9.5810 C   0  0  0  0  0
  -17.6190   -8.4160    6.8440 C   0  0  0  0  0
  -15.1830  -11.9470    9.8800 C   0  0  0  0  0
  -27.8574   -9.4104   14.7891 H   0  0  0  0  0
  -28.4108   -8.9714   16.4237 H   0  0  0  0  0
  -29.2664   -8.3411   14.9948 H   0  0  0  0  0
  -27.2644   -7.1012   14.3397 H   0  0  0  0  0
  -27.9050   -6.5274   17.1443 H   0  0  0  0  0
  -28.8989   -6.1330   15.8319 H   0  0  0  0  0
  -25.9967   -7.9236   17.0162 H   0  0  0  0  0
  -25.5575   -8.6333   15.5078 H   0  0  0  0  0
  -19.4257   -4.7954   14.5814 H   0  0  0  0  0
  -25.1543   -4.4294   15.7300 H   0  0  0  0  0
  -25.5339   -5.2868   17.2914 H   0  0  0  0  0
  -27.3382   -4.7269   14.9283 H   0  0  0  0  0
  -27.5807   -4.1627   17.9095 H   0  0  0  0  0
  -27.2015   -2.9749   16.6381 H   0  0  0  0  0
  -28.7986   -3.7616   16.6738 H   0  0  0  0  0
  -23.2730   -4.9431   16.6358 H   0  0  0  0  0
  -20.8756   -5.0291   16.0025 H   0  0  0  0  0
  -21.7132   -8.2418   13.3086 H   0  0  0  0  0
  -24.0920   -8.1737   13.9188 H   0  0  0  0  0
  -17.0554   -7.3669   12.9388 H   0  0  0  0  0
  -14.2475   -7.2175   12.7946 H   0  0  0  0  0
  -13.5750   -5.5245   13.0188 H   0  0  0  0  0
  -13.1894   -5.9380   10.7917 H   0  0  0  0  0
  -14.7528   -5.0869   10.7677 H   0  0  0  0  0
  -13.4864   -8.6185   11.2046 H   0  0  0  0  0
  -16.5313  -10.2374    8.6280 H   0  0  0  0  0
  -16.4017   -6.0271    9.4316 H   0  0  0  0  0
  -16.7660   -8.0022    6.3062 H   0  0  0  0  0
  -17.5252   -9.5006    6.8972 H   0  0  0  0  0
  -18.5401   -8.1549    6.3230 H   0  0  0  0  0
  -16.0781  -11.9384   10.5019 H   0  0  0  0  0
  -15.4697  -11.9537    8.8284 H   0  0  0  0  0
  -14.5928  -12.8359   10.1027 H   0  0  0  0  0
  4  1  1  0  0  0
  2  7  1  0  0  0
  2 10  1  0  0  0
 15  2  1  0  0  0
 21  3  2  0  0  0
  4  5  1  0  0  0
  7  4  1  0  0  0
 12  5  1  0  0  0
 31  6  1  0  0  0
  6 33  1  0  0  0
  8 21  1  0  0  0
 22  8  1  0  0  0
 29  9  1  0  0  0
  9 34  1  0  0  0
 10 12  1  0  0  0
 11 13  4  0  0  0
 24 11  4  0  0  0
 12 14  1  0  0  0
 22 13  4  0  0  0
 16 15  4  0  0  0
 20 15  4  0  0  0
 17 16  4  0  0  0
 18 17  4  0  0  0
 18 19  4  0  0  0
 21 18  1  0  0  0
 19 20  4  0  0  0
 23 22  4  0  0  0
 24 23  4  0  0  0
 25 24  1  0  0  0
 26 25  1  0  0  0
 27 26  1  0  0  0
 28 27  4  0  0  0
 27 32  4  0  0  0
 29 28  4  0  0  0
 30 29  4  0  0  0
 30 31  4  0  0  0
 31 32  4  0  0  0
  1 35  1  0  0  0
  1 36  1  0  0  0
  1 37  1  0  0  0
  4 38  1  0  0  0
  5 39  1  0  0  0
  5 40  1  0  0  0
  7 41  1  0  0  0
  7 42  1  0  0  0
  8 43  1  0  0  0
 10 44  1  0  0  0
 10 45  1  0  0  0
 12 46  1  0  0  0
 14 47  1  0  0  0
 14 48  1  0  0  0
 14 49  1  0  0  0
 16 50  1  0  0  0
 17 51  1  0  0  0
 19 52  1  0  0  0
 20 53  1  0  0  0
 23 54  1  0  0  0
 25 55  1  0  0  0
 25 56  1  0  0  0
 26 57  1  0  0  0
 26 58  1  0  0  0
 28 59  1  0  0  0
 30 60  1  0  0  0
 32 61  1  0  0  0
 33 62  1  0  0  0
 33 63  1  0  0  0
 33 64  1  0  0  0
 34 65  1  0  0  0
 34 66  1  0  0  0
 34 67  1  0  0  0
M  END
$$$$
