1rsd_ligand
  -I-interpret- 

 57 61  0  0  0  0  0  0  0  0999 V2000
   48.2430   44.6850   78.7850 N   0  0  0  0  0
   48.3170   45.4170   77.4700 C   0  0  0  0  0
   47.3040   46.3170   77.1120 N   0  0  0  0  0
   47.3470   47.0620   75.9270 C   0  0  0  0  0
   46.3910   47.8580   75.6950 O   0  0  0  0  0
   48.5130   46.9330   74.9660 C   0  0  0  0  0
   48.9810   47.4780   73.6750 N   0  0  0  0  0
   50.2140   46.7670   73.5420 N   0  0  0  0  0
   50.3260   45.9270   74.6740 N   0  0  0  0  0
   49.4970   45.9720   75.4050 C   0  0  0  0  0
   49.3470   45.2570   76.6770 N   0  0  0  0  0
   51.2030   46.7870   72.6690 C   0  0  0  0  0
   52.1730   47.8280   72.7710 C   0  0  0  0  0
   53.3540   47.7160   71.9930 C   0  0  0  0  0
   53.5240   46.5660   71.1660 C   0  0  0  0  0
   52.4720   45.5590   71.0530 C   0  0  0  0  0
   51.3170   45.7320   71.8230 C   0  0  0  0  0
   52.6110   44.3540   70.3090 C   0  0  0  0  0
   51.6390   43.5080   70.1400 O   0  0  0  0  0
   53.7350   44.0520   70.0400 N   0  0  0  0  0
   53.7690   42.5900   69.6760 C   0  0  0  0  0
   55.1120   42.0140   70.1290 C   0  0  0  0  0
   55.3290   42.4320   71.5760 C   0  0  0  0  0
   56.4210   41.9820   72.3490 C   0  0  0  0  0
   57.3480   41.1540   71.8140 C   0  0  0  0  0
   57.2110   40.7400   70.4340 C   0  0  0  0  0
   56.0020   41.2260   69.5770 C   0  0  0  0  0
   55.7750   40.7290   67.9540 S   0  0  0  0  0
   57.2870   40.3620   67.2420 C   0  0  0  0  0
   58.2910   39.6600   67.9890 C   0  0  0  0  0
   59.5060   39.3570   67.4040 C   0  0  0  0  0
   59.7540   39.7410   66.0470 C   0  0  0  0  0
   58.7450   40.4490   65.3030 C   0  0  0  0  0
   57.5180   40.7510   65.9140 C   0  0  0  0  0
   56.4090   41.5080   65.1400 C   0  0  0  0  0
   56.5140   42.8980   65.3220 O   0  0  0  0  0
   48.9987   44.0591   79.0635 H   0  0  0  0  0
   47.4372   44.8154   79.3966 H   0  0  0  0  0
   46.5066   46.4336   77.7372 H   0  0  0  0  0
   52.0117   48.6835   73.4268 H   0  0  0  0  0
   54.1170   48.4937   72.0265 H   0  0  0  0  0
   54.4527   46.4369   70.6102 H   0  0  0  0  0
   50.5015   45.0132   71.7428 H   0  0  0  0  0
   54.5388   44.6798   70.0543 H   0  0  0  0  0
   53.6547   42.4699   68.5987 H   0  0  0  0  0
   52.9511   42.0630   70.1673 H   0  0  0  0  0
   54.6092   43.1090   72.0360 H   0  0  0  0  0
   56.5184   42.3042   73.3857 H   0  0  0  0  0
   58.1872   40.8033   72.4147 H   0  0  0  0  0
   57.9590   40.0831   69.9900 H   0  0  0  0  0
   58.0951   39.3651   69.0199 H   0  0  0  0  0
   60.2713   38.8286   67.9725 H   0  0  0  0  0
   60.7069   39.4972   65.5772 H   0  0  0  0  0
   58.9328   40.7485   64.2719 H   0  0  0  0  0
   55.4396   41.1818   65.5168 H   0  0  0  0  0
   56.5170   41.2888   64.0777 H   0  0  0  0  0
   55.8154   43.3375   64.8317 H   0  0  0  0  0
  1  2  1  0  0  0
  2  3  1  0  0  0
  2 11  2  0  0  0
  3  4  1  0  0  0
  4  5  2  0  0  0
  4  6  1  0  0  0
  6  7  4  0  0  0
  6 10  4  0  0  0
  7  8  4  0  0  0
  8  9  4  0  0  0
  8 12  1  0  0  0
  9 10  4  0  0  0
 10 11  1  0  0  0
 12 13  4  0  0  0
 12 17  4  0  0  0
 13 14  4  0  0  0
 14 15  4  0  0  0
 15 16  4  0  0  0
 16 17  4  0  0  0
 16 18  1  0  0  0
 18 19  2  0  0  0
 18 20  1  0  0  0
 20 21  1  0  0  0
 21 22  1  0  0  0
 22 23  4  0  0  0
 22 27  4  0  0  0
 23 24  4  0  0  0
 24 25  4  0  0  0
 25 26  4  0  0  0
 26 27  4  0  0  0
 27 28  1  0  0  0
 28 29  1  0  0  0
 29 30  4  0  0  0
 29 34  4  0  0  0
 30 31  4  0  0  0
 31 32  4  0  0  0
 32 33  4  0  0  0
 33 34  4  0  0  0
 34 35  1  0  0  0
 35 36  1  0  0  0
  1 37  1  0  0  0
  1 38  1  0  0  0
  3 39  1  0  0  0
 13 40  1  0  0  0
 14 41  1  0  0  0
 15 42  1  0  0  0
 17 43  1  0  0  0
 20 44  1  0  0  0
 21 45  1  0  0  0
 21 46  1  0  0  0
 23 47  1  0  0  0
 24 48  1  0  0  0
 25 49  1  0  0  0
 26 50  1  0  0  0
 30 51  1  0  0  0
 31 52  1  0  0  0
 32 53  1  0  0  0
 33 54  1  0  0  0
 35 55  1  0  0  0
 35 56  1  0  0  0
 36 57  1  0  0  0
M  END
$$$$
