6c0s_ligand
  -I-interpret- 

 77 81  0  0  0  0  0  0  0  0999 V2000
   45.9500  -20.8730   30.9580 C   0  0  0  0  0
   44.4280  -22.4450   31.9220 C   0  0  0  0  0
   45.3500  -22.7360   32.9150 C   0  0  0  0  0
   46.6020  -22.1200   32.9200 C   0  0  0  0  0
   37.7750  -15.0380   27.6760 C   0  0  0  0  0
   37.1050  -13.8170   27.5850 C   0  0  0  0  0
   35.9790  -13.5690   28.3550 C   0  0  0  0  0
   35.5200  -14.5470   29.2150 C   0  0  0  0  0
   36.1600  -15.7610   29.3260 C   0  0  0  0  0
   37.3030  -16.0240   28.5590 C   0  0  0  0  0
   42.3600  -21.1700   30.2040 C   0  0  0  0  0
   44.7070  -21.5090   30.9200 C   0  0  0  0  0
   48.8390  -22.1840   34.0710 C   0  0  0  0  0
   38.8830  -15.1410   25.4020 C   0  0  0  0  0
   34.0760  -14.2590   30.1580 Cl  0  0  0  0  0
   45.6130  -21.1290   27.8490 Cl  0  0  0  0  0
   39.2430  -19.8970   29.2330 N   0  0  0  0  0
   39.9450  -21.1540   29.4980 C   0  0  0  0  0
   41.4140  -20.9570   29.2070 C   0  0  0  0  0
   39.4390  -22.3710   28.7020 C   0  0  0  0  0
   41.7630  -20.7240   27.9410 N   0  0  0  0  0
   43.0550  -20.7540   27.5910 N   0  0  0  0  0
   43.9930  -21.0020   28.4810 C   0  0  0  0  0
   43.7090  -21.2090   29.8490 C   0  0  0  0  0
   46.8940  -21.1870   31.9240 C   0  0  0  0  0
   47.5250  -22.5300   33.9340 N   0  0  0  0  0
   38.7790  -15.3620   26.7140 N   0  0  0  0  0
   37.9740  -17.3200   28.7440 C   0  0  0  0  0
   40.0700  -15.4900   24.9880 N   0  0  0  0  0
   40.7360  -15.8990   26.0960 N   0  0  0  0  0
   39.9760  -15.8340   27.1420 N   0  0  0  0  0
   38.4970  -17.7070   29.8980 C   0  0  0  0  0
   39.2380  -18.9540   30.1990 C   0  0  0  0  0
   39.8650  -19.0980   31.2520 O   0  0  0  0  0
   49.4840  -21.4870   33.3150 O   0  0  0  0  0
   49.3420  -22.7530   35.1800 O   0  0  0  0  0
   50.7650  -22.5730   35.4040 C   0  0  0  0  0
   40.1290  -23.7130   29.0520 C   0  0  0  0  0
   40.0910  -24.0690   30.5350 C   0  0  0  0  0
   40.8920  -25.3320   30.8240 C   0  0  0  0  0
   40.4630  -26.4830   29.9100 C   0  0  0  0  0
   40.3580  -26.0900   28.4910 N   0  0  0  0  0
   39.5540  -24.8830   28.2620 C   0  0  0  0  0
   41.0190  -26.7780   27.5060 C   0  0  0  0  0
   41.8120  -27.6640   27.7810 O   0  0  0  0  0
   40.7940  -26.3750   26.0810 C   0  0  0  0  0
   46.1831  -20.1132   30.2120 H   0  0  0  0  0
   43.4652  -22.9560   31.9216 H   0  0  0  0  0
   45.0954  -23.4509   33.6974 H   0  0  0  0  0
   37.4707  -13.0506   26.9016 H   0  0  0  0  0
   35.4617  -12.6123   28.2823 H   0  0  0  0  0
   35.7775  -16.5179   30.0108 H   0  0  0  0  0
   42.0539  -21.3038   31.2416 H   0  0  0  0  0
   38.0946  -14.7306   24.7710 H   0  0  0  0  0
   38.7707  -19.7381   28.3430 H   0  0  0  0  0
   39.7517  -21.3875   30.5450 H   0  0  0  0  0
   39.6520  -22.1715   27.6518 H   0  0  0  0  0
   38.3823  -22.4877   28.9424 H   0  0  0  0  0
   47.8701  -20.7022   31.9053 H   0  0  0  0  0
   47.1543  -23.1608   34.6447 H   0  0  0  0  0
   38.0442  -17.9943   27.8905 H   0  0  0  0  0
   38.3652  -17.0195   30.7335 H   0  0  0  0  0
   51.3199  -22.9995   34.5683 H   0  0  0  0  0
   50.9872  -21.5089   35.4840 H   0  0  0  0  0
   51.0527  -23.0760   36.3273 H   0  0  0  0  0
   41.1695  -23.5478   28.7723 H   0  0  0  0  0
   39.0542  -24.2432   30.8227 H   0  0  0  0  0
   40.5275  -23.2454   31.1000 H   0  0  0  0  0
   40.7157  -25.6259   31.8587 H   0  0  0  0  0
   41.9469  -25.1224   30.6468 H   0  0  0  0  0
   39.4765  -26.8132   30.2353 H   0  0  0  0  0
   41.2216  -27.2624   29.9818 H   0  0  0  0  0
   39.5692  -24.6393   27.1997 H   0  0  0  0  0
   38.5308  -25.0673   28.5894 H   0  0  0  0  0
   41.7327  -26.0255   25.6510 H   0  0  0  0  0
   40.4308  -27.2329   25.5151 H   0  0  0  0  0
   40.0553  -25.5743   26.0435 H   0  0  0  0  0
 12  1  4  0  0  0
  1 25  4  0  0  0
  2  3  4  0  0  0
 12  2  4  0  0  0
  3  4  4  0  0  0
 25  4  4  0  0  0
  4 26  1  0  0  0
  5  6  4  0  0  0
 10  5  4  0  0  0
  5 27  1  0  0  0
  6  7  4  0  0  0
  8  7  4  0  0  0
  9  8  4  0  0  0
  8 15  1  0  0  0
 10  9  4  0  0  0
 28 10  1  0  0  0
 19 11  4  0  0  0
 11 24  4  0  0  0
 24 12  1  0  0  0
 26 13  1  0  0  0
 13 35  2  0  0  0
 13 36  1  0  0  0
 27 14  4  0  0  0
 14 29  4  0  0  0
 23 16  1  0  0  0
 17 18  1  0  0  0
 33 17  1  0  0  0
 18 19  1  0  0  0
 18 20  1  0  0  0
 19 21  4  0  0  0
 20 38  1  0  0  0
 21 22  4  0  0  0
 22 23  4  0  0  0
 24 23  4  0  0  0
 27 31  4  0  0  0
 32 28  2  0  0  0
 30 29  4  0  0  0
 31 30  4  0  0  0
 32 33  1  0  0  0
 33 34  2  0  0  0
 36 37  1  0  0  0
 38 39  1  0  0  0
 38 43  1  0  0  0
 39 40  1  0  0  0
 40 41  1  0  0  0
 41 42  1  0  0  0
 42 43  1  0  0  0
 42 44  1  0  0  0
 44 45  2  0  0  0
 44 46  1  0  0  0
  1 47  1  0  0  0
  2 48  1  0  0  0
  3 49  1  0  0  0
  6 50  1  0  0  0
  7 51  1  0  0  0
  9 52  1  0  0  0
 11 53  1  0  0  0
 14 54  1  0  0  0
 17 55  1  0  0  0
 18 56  1  0  0  0
 20 57  1  0  0  0
 20 58  1  0  0  0
 25 59  1  0  0  0
 26 60  1  0  0  0
 28 61  1  0  0  0
 32 62  1  0  0  0
 37 63  1  0  0  0
 37 64  1  0  0  0
 37 65  1  0  0  0
 38 66  1  0  0  0
 39 67  1  0  0  0
 39 68  1  0  0  0
 40 69  1  0  0  0
 40 70  1  0  0  0
 41 71  1  0  0  0
 41 72  1  0  0  0
 43 73  1  0  0  0
 43 74  1  0  0  0
 46 75  1  0  0  0
 46 76  1  0  0  0
 46 77  1  0  0  0
M  END
$$$$
