3f5j_ligand
  -I-interpret- 

 87 90  0  0  0  0  0  0  0  0999 V2000
   -2.5320   -0.8940   51.8550 O   0  0  0  0  0
   -1.3140   -0.4650   51.2130 C   0  0  0  0  0
   -0.8350   -1.6100   50.3300 C   0  0  0  0  0
   -0.5050   -2.7550   51.1230 O   0  0  0  0  0
    0.3820   -1.1910   49.5270 C   0  0  0  0  0
    0.7530   -2.2840   48.6690 O   0  0  0  0  0
   -1.5930    0.7250   50.4530 O   0  0  0  0  0
   -0.6350    1.2020   49.4910 C   0  0  0  0  0
   -1.4160    2.0720   48.4970 C   0  0  0  0  0
   -1.4290    3.4540   48.8620 O   0  0  0  0  0
    0.0710    0.0710   48.7100 C   0  0  0  0  0
    1.2930    0.5390   48.1280 O   0  0  0  0  0
    1.2070    0.7230   46.6710 C   0  0  0  0  0
    2.4600    1.4270   46.1250 C   0  0  0  0  0
    2.5970    2.6720   46.8150 O   0  0  0  0  0
    2.3610    1.6680   44.6170 C   0  0  0  0  0
    3.6050    2.1910   44.1000 O   0  0  0  0  0
    0.9950   -0.5290   45.9960 O   0  0  0  0  0
    0.7680   -0.2920   44.5920 C   0  0  0  0  0
    0.3590   -1.6020   43.9540 C   0  0  0  0  0
   -0.9530   -1.7840   44.4820 O   0  0  0  0  0
    1.9470    0.3870   43.8770 C   0  0  0  0  0
    1.5100    0.7420   42.5610 O   0  0  0  0  0
    2.4280    0.4540   41.4790 C   0  0  0  0  0
    1.6930    0.4520   40.1430 C   0  0  0  0  0
    0.6760   -0.5470   40.1980 O   0  0  0  0  0
    2.6790    0.1500   39.0220 C   0  0  0  0  0
    2.0720    0.1720   37.7070 O   0  0  0  0  0
    3.4390    1.4570   41.3520 O   0  0  0  0  0
    4.4850    1.1160   40.4150 C   0  0  0  0  0
    5.6440    2.0940   40.5650 C   0  0  0  0  0
    6.0020    2.1900   41.9650 O   0  0  0  0  0
    3.8780    1.0840   39.0130 C   0  0  0  0  0
    4.7230    0.4460   38.0650 O   0  0  0  0  0
    5.5230    1.2320   37.1220 C   0  0  0  0  0
    5.8550    0.3820   35.8440 C   0  0  0  0  0
    7.2640    0.1910   35.5420 O   0  0  0  0  0
    5.1830    0.9040   34.5900 C   0  0  0  0  0
    5.1180   -0.1210   33.5850 O   0  0  0  0  0
    3.8240    1.4330   35.0470 C   0  0  0  0  0
    3.0590    1.6690   33.8820 O   0  0  0  0  0
    4.9490    2.5650   36.9060 O   0  0  0  0  0
    4.1460    2.7720   35.7170 C   0  0  0  0  0
    2.9670    3.7130   36.0480 C   0  0  0  0  0
    1.8760    3.0400   36.7450 O   0  0  0  0  0
   -2.3603   -1.6882   52.3663 H   0  0  0  0  0
   -0.5298   -0.2241   51.9307 H   0  0  0  0  0
   -1.6455   -1.8672   49.6480 H   0  0  0  0  0
   -1.2736   -3.0224   51.6323 H   0  0  0  0  0
    1.2116   -0.9532   50.1928 H   0  0  0  0  0
    0.9418   -3.0589   49.2033 H   0  0  0  0  0
    0.1487    1.7441   50.0202 H   0  0  0  0  0
   -2.4476    1.7203   48.4843 H   0  0  0  0  0
   -0.9292    1.9878   47.5254 H   0  0  0  0  0
   -1.9283    3.9513   48.2101 H   0  0  0  0  0
   -0.6529   -0.2151   47.9470 H   0  0  0  0  0
    0.3455    1.3611   46.4741 H   0  0  0  0  0
    3.3314    0.7931   46.2892 H   0  0  0  0  0
    3.3747    3.1322   46.4910 H   0  0  0  0  0
    1.5844    2.4131   44.4442 H   0  0  0  0  0
    3.5220    2.3349   43.1545 H   0  0  0  0  0
   -0.0387    0.4332   44.4847 H   0  0  0  0  0
    1.0363   -2.4255   44.1803 H   0  0  0  0  0
    0.3900   -1.5829   42.8646 H   0  0  0  0  0
   -1.3236   -2.6012   44.1407 H   0  0  0  0  0
    2.7990   -0.2922   43.8478 H   0  0  0  0  0
    2.8687   -0.5149   41.7136 H   0  0  0  0  0
    1.2414    1.4249   39.9492 H   0  0  0  0  0
    0.2005   -0.5642   39.3642 H   0  0  0  0  0
    3.0184   -0.8627   39.2395 H   0  0  0  0  0
    2.7387   -0.0244   37.0447 H   0  0  0  0  0
    4.9008    0.1278   40.6118 H   0  0  0  0  0
    5.3476    3.0749   40.1934 H   0  0  0  0  0
    6.5000    1.7404   39.9902 H   0  0  0  0  0
    6.7321    2.8051   42.0660 H   0  0  0  0  0
    3.6756    2.1241   38.7572 H   0  0  0  0  0
    6.4996    1.4597   37.5492 H   0  0  0  0  0
    5.4502   -0.5891   36.1290 H   0  0  0  0  0
    7.3506   -0.3391   34.7463 H   0  0  0  0  0
    5.7380    1.7083   34.1072 H   0  0  0  0  0
    4.6899    0.2287   32.8001 H   0  0  0  0  0
    3.2829    0.7594   35.7115 H   0  0  0  0  0
    2.1943    2.0038   34.1307 H   0  0  0  0  0
    4.6932    3.3037   34.9386 H   0  0  0  0  0
    2.5730    4.0944   35.1060 H   0  0  0  0  0
    3.3439    4.4985   36.7030 H   0  0  0  0  0
    1.1747    3.6707   36.9239 H   0  0  0  0  0
  1  2  1  0  0  0
  2  3  1  0  0  0
  2  7  1  0  0  0
  3  4  1  0  0  0
  3  5  1  0  0  0
  5  6  1  0  0  0
  5 11  1  0  0  0
  7  8  1  0  0  0
  8  9  1  0  0  0
  8 11  1  0  0  0
  9 10  1  0  0  0
 11 12  1  0  0  0
 12 13  1  0  0  0
 13 14  1  0  0  0
 13 18  1  0  0  0
 14 15  1  0  0  0
 14 16  1  0  0  0
 16 17  1  0  0  0
 16 22  1  0  0  0
 18 19  1  0  0  0
 19 20  1  0  0  0
 19 22  1  0  0  0
 20 21  1  0  0  0
 22 23  1  0  0  0
 23 24  1  0  0  0
 24 25  1  0  0  0
 24 29  1  0  0  0
 25 26  1  0  0  0
 25 27  1  0  0  0
 27 28  1  0  0  0
 27 33  1  0  0  0
 29 30  1  0  0  0
 30 31  1  0  0  0
 30 33  1  0  0  0
 31 32  1  0  0  0
 33 34  1  0  0  0
 34 35  1  0  0  0
 35 36  1  0  0  0
 35 42  1  0  0  0
 36 37  1  0  0  0
 36 38  1  0  0  0
 38 39  1  0  0  0
 38 40  1  0  0  0
 40 41  1  0  0  0
 40 43  1  0  0  0
 42 43  1  0  0  0
 43 44  1  0  0  0
 44 45  1  0  0  0
  1 46  1  0  0  0
  2 47  1  0  0  0
  3 48  1  0  0  0
  4 49  1  0  0  0
  5 50  1  0  0  0
  6 51  1  0  0  0
  8 52  1  0  0  0
  9 53  1  0  0  0
  9 54  1  0  0  0
 10 55  1  0  0  0
 11 56  1  0  0  0
 13 57  1  0  0  0
 14 58  1  0  0  0
 15 59  1  0  0  0
 16 60  1  0  0  0
 17 61  1  0  0  0
 19 62  1  0  0  0
 20 63  1  0  0  0
 20 64  1  0  0  0
 21 65  1  0  0  0
 22 66  1  0  0  0
 24 67  1  0  0  0
 25 68  1  0  0  0
 26 69  1  0  0  0
 27 70  1  0  0  0
 28 71  1  0  0  0
 30 72  1  0  0  0
 31 73  1  0  0  0
 31 74  1  0  0  0
 32 75  1  0  0  0
 33 76  1  0  0  0
 35 77  1  0  0  0
 36 78  1  0  0  0
 37 79  1  0  0  0
 38 80  1  0  0  0
 39 81  1  0  0  0
 40 82  1  0  0  0
 41 83  1  0  0  0
 43 84  1  0  0  0
 44 85  1  0  0  0
 44 86  1  0  0  0
 45 87  1  0  0  0
M  END
$$$$
