### 
### Created by X-TOOL on Mon Sep 10 21:12:55 2018
### 

@<TRIPOS>MOLECULE
2e99_ligand
   45    47     1     0     0
SMALL
GAST_HUCK


@<TRIPOS>ATOM
      1 CAN        42.6190   33.7910   54.9880 C.ar      1 B08        -0.0540
      2 CAI        42.9660   32.5750   54.4090 C.ar      1 B08        -0.0612
      3 CAH        43.7130   31.6490   55.1330 C.ar      1 B08        -0.0617
      4 CAJ        44.0990   31.9560   56.4330 C.ar      1 B08        -0.0612
      5 CAO        43.7490   33.1770   57.0060 C.ar      1 B08        -0.0540
      6 CAW        43.0060   34.1090   56.2860 C.ar      1 B08        -0.0179
      7 CAY        42.6420   35.3240   56.8650 C.ar      1 B08        -0.0173
      8 CAT        41.6060   36.0950   56.3410 C.ar      1 B08        -0.0464
      9 CAQ        43.2980   35.7740   58.0060 C.ar      1 B08        -0.0540
     10 CAL        42.9180   36.9700   58.6070 C.ar      1 B08        -0.0606
     11 CAR        41.8830   37.7320   58.0730 C.ar      1 B08        -0.0541
     12 CAZ        41.2220   37.2970   56.9300 C.ar      1 B08        -0.0190
     13 CAX        40.1830   38.0590   56.3950 C.ar      1 B08        -0.0247
     14 CAS        40.3040   39.4420   56.2790 C.ar      1 B08        -0.0527
     15 CAP        39.0610   37.4320   55.8650 C.ar      1 B08        -0.0609
     16 CAK        38.0800   38.1760   55.2120 C.ar      1 B08        -0.0678
     17 CAM        38.2130   39.5550   55.0880 C.ar      1 B08        -0.0600
     18 CAV        39.3280   40.1920   55.6250 C.ar      1 B08        -0.0369
     19 CAU        39.5280   41.6920   55.3810 C.3       1 B08         0.0415
     20 CBA        38.9660   42.5710   56.5020 C.3       1 B08         0.2140
     21 PBB        39.6910   44.2850   56.3820 P.3       1 B08         0.1121
     22 OAD        41.2880   44.0990   56.4360 O.co2     1 B08        -0.5593
     23 OAE        39.3830   44.8280   54.8980 O.co2     1 B08        -0.5593
     24 OAA        39.1530   45.1370   57.4660 O.co2     1 B08        -0.5593
     25 PBC        37.1090   42.7670   56.4460 P.3       1 B08         0.1121
     26 OAF        36.7220   43.1150   54.9210 O.co2     1 B08        -0.5593
     27 OAG        36.5210   41.3120   56.8120 O.co2     1 B08        -0.5593
     28 OAB        36.6180   43.8180   57.3700 O.co2     1 B08        -0.5593
     29 OAC        39.3840   42.0180   57.7510 O.3       1 B08        -0.3579
     30 H1         42.0359   34.5046   54.4171 H         1 B08         0.0624
     31 H2         42.6554   32.3483   53.3955 H         1 B08         0.0618
     32 H3         43.9902   30.7001   54.6882 H         1 B08         0.0618
     33 H4         44.6770   31.2396   57.0055 H         1 B08         0.0618
     34 H5         44.0576   33.4031   58.0203 H         1 B08         0.0624
     35 H6         41.0868   35.7508   55.4539 H         1 B08         0.0630
     36 H7         44.1082   35.1908   58.4285 H         1 B08         0.0624
     37 H8         43.4322   37.3110   59.4983 H         1 B08         0.0618
     38 H9         41.5929   38.6626   58.5473 H         1 B08         0.0624
     39 H10        41.1680   39.9411   56.7027 H         1 B08         0.0560
     40 H11        38.9485   36.3581   55.9602 H         1 B08         0.0567
     41 H12        37.2101   37.6781   54.7992 H         1 B08         0.0600
     42 H13        37.4514   40.1313   54.5752 H         1 B08         0.0558
     43 H14        39.0252   41.9624   54.4407 H         1 B08         0.0483
     44 H15        40.6063   41.8898   55.2903 H         1 B08         0.0483
     45 H16        40.3329   41.9814   57.7781 H         1 B08         0.2134
@<TRIPOS>BOND
     1    1    2 ar 
     2    1    6 ar 
     3    2    3 ar 
     4    3    4 ar 
     5    4    5 ar 
     6    5    6 ar 
     7    6    7 1  
     8    7    8 ar 
     9    7    9 ar 
    10    8   12 ar 
    11    9   10 ar 
    12   10   11 ar 
    13   11   12 ar 
    14   12   13 1  
    15   13   14 ar 
    16   13   15 ar 
    17   14   18 ar 
    18   15   16 ar 
    19   16   17 ar 
    20   17   18 ar 
    21   18   19 1  
    22   19   20 1  
    23   20   21 1  
    24   20   25 1  
    25   20   29 1  
    26   21   22 ar 
    27   21   23 ar 
    28   21   24 ar 
    29   25   26 ar 
    30   25   27 ar 
    31   25   28 ar 
    32    1   30 1  
    33    2   31 1  
    34    3   32 1  
    35    4   33 1  
    36    5   34 1  
    37    8   35 1  
    38    9   36 1  
    39   10   37 1  
    40   11   38 1  
    41   14   39 1  
    42   15   40 1  
    43   16   41 1  
    44   17   42 1  
    45   19   43 1  
    46   19   44 1  
    47   29   45 1  
@<TRIPOS>SUBSTRUCTURE
     1 B08         1

