5nev_ligand
  -I-interpret- 

 49 53  0  0  0  0  0  0  0  0999 V2000
   -9.3580  -20.5510   22.1990 C   0  0  0  0  0
   -5.2320  -25.1460   25.4970 C   0  0  0  0  0
   -4.7850  -25.7990   26.6460 C   0  0  0  0  0
   -4.5320  -25.3470   24.3000 C   0  0  0  0  0
   -3.4200  -26.1570   24.2660 C   0  0  0  0  0
   -3.0130  -26.7970   25.4060 C   0  0  0  0  0
   -3.6780  -26.6120   26.6020 C   0  0  0  0  0
   -5.8480  -22.8780   23.7420 N   0  0  0  0  0
   -8.0440  -22.8830   24.5100 N   0  0  0  0  0
   -9.5190  -21.3900   23.2500 N   0  0  0  0  0
   -6.1130  -21.9810   22.7510 C   0  0  0  0  0
   -6.7760  -23.3300   24.6080 C   0  0  0  0  0
   -8.3750  -21.9850   23.5400 C   0  0  0  0  0
   -7.4240  -21.5220   22.6350 C   0  0  0  0  0
   -8.1090  -20.5710   21.7390 N   0  0  0  0  0
   -6.4140  -24.2890   25.6120 N   0  0  0  0  0
   -1.6170  -27.7930   25.2700 S   0  0  0  0  0
   -1.7360  -28.6500   24.1620 O   0  0  0  0  0
   -0.4980  -26.5940   24.9660 N   0  0  0  0  0
   -1.3360  -28.5610   26.4290 O   0  0  0  0  0
   -5.0150  -21.5730   21.8200 C   0  0  0  0  0
   -5.1760  -20.7020   20.7060 C   0  0  0  0  0
   -4.0900  -20.4060   19.8760 C   0  0  0  0  0
   -2.8450  -20.9740   20.1240 C   0  0  0  0  0
   -2.7080  -21.8170   21.2020 C   0  0  0  0  0
   -3.7530  -22.1330   22.0350 C   0  0  0  0  0
   -1.4190  -22.4290   21.4930 C   0  0  0  0  0
   -1.3260  -23.7720   21.3220 C   0  0  0  0  0
   -0.1450  -24.3590   21.5890 C   0  0  0  0  0
    0.9310  -23.6010   22.0200 C   0  0  0  0  0
    0.8160  -22.2430   22.1870 C   0  0  0  0  0
   -0.3750  -21.6510   21.9200 C   0  0  0  0  0
  -10.1539  -19.9347   21.7809 H   0  0  0  0  0
   -5.3185  -25.6631   27.5868 H   0  0  0  0  0
   -4.8714  -24.8572   23.3873 H   0  0  0  0  0
   -2.8661  -26.2884   23.3365 H   0  0  0  0  0
   -3.3266  -27.1083   27.5066 H   0  0  0  0  0
   -7.0039  -24.3775   26.4394 H   0  0  0  0  0
   -0.0133  -26.5643   24.0690 H   0  0  0  0  0
   -0.2984  -25.8905   25.6771 H   0  0  0  0  0
   -6.1518  -20.2629   20.4984 H   0  0  0  0  0
   -4.2197  -19.7282   19.0323 H   0  0  0  0  0
   -1.9952  -20.7555   19.4773 H   0  0  0  0  0
   -3.5977  -22.8219   22.8653 H   0  0  0  0  0
   -2.1801  -24.3562   20.9795 H   0  0  0  0  0
   -0.0346  -25.4363   21.4655 H   0  0  0  0  0
    1.8826  -24.0894   22.2296 H   0  0  0  0  0
    1.6659  -21.6516   22.5278 H   0  0  0  0  0
   -0.4993  -20.5751   22.0430 H   0  0  0  0  0
 10  1  4  0  0  0
  1 15  4  0  0  0
  2  3  4  0  0  0
  2  4  4  0  0  0
 16  2  1  0  0  0
  3  7  4  0  0  0
  4  5  4  0  0  0
  5  6  4  0  0  0
  7  6  4  0  0  0
  6 17  1  0  0  0
  8 11  4  0  0  0
 12  8  4  0  0  0
 12  9  4  0  0  0
  9 13  4  0  0  0
 13 10  4  0  0  0
 11 14  4  0  0  0
 11 21  1  0  0  0
 12 16  1  0  0  0
 13 14  4  0  0  0
 14 15  4  0  0  0
 17 18  2  0  0  0
 17 19  1  0  0  0
 17 20  2  0  0  0
 21 22  4  0  0  0
 21 26  4  0  0  0
 22 23  4  0  0  0
 23 24  4  0  0  0
 24 25  4  0  0  0
 25 26  4  0  0  0
 25 27  1  0  0  0
 27 28  4  0  0  0
 27 32  4  0  0  0
 28 29  4  0  0  0
 29 30  4  0  0  0
 30 31  4  0  0  0
 31 32  4  0  0  0
  1 33  1  0  0  0
  3 34  1  0  0  0
  4 35  1  0  0  0
  5 36  1  0  0  0
  7 37  1  0  0  0
 16 38  1  0  0  0
 19 39  1  0  0  0
 19 40  1  0  0  0
 22 41  1  0  0  0
 23 42  1  0  0  0
 24 43  1  0  0  0
 26 44  1  0  0  0
 28 45  1  0  0  0
 29 46  1  0  0  0
 30 47  1  0  0  0
 31 48  1  0  0  0
 32 49  1  0  0  0
M  END
$$$$
