5drq_ligand
  -I-interpret- 

 52 53  0  0  0  0  0  0  0  0999 V2000
   25.3220   13.6740    6.1090 C   0  0  0  0  0
   27.7280   13.9730    4.5590 C   0  0  0  0  0
   26.9340   16.2540    3.8220 C   0  0  0  0  0
   27.3450   18.5250    2.4740 C   0  0  0  0  0
   27.3140   21.8670    1.0640 C   0  0  0  0  0
   27.7660   23.0070    0.3150 C   0  0  0  0  0
   29.0300   22.9560   -0.3540 C   0  0  0  0  0
   29.8900   21.7530   -0.2950 C   0  0  0  0  0
   24.5150   10.4800    9.8750 C   0  0  0  0  0
   23.7190   11.7160   10.2090 C   0  0  0  0  0
   22.1350   10.3360    7.9510 O   0  0  0  0  0
   23.1690    9.6400    7.9200 C   0  0  0  0  0
   23.0790    8.3180    7.4690 N   0  0  0  0  0
   21.8540    7.8990    7.1540 O   0  0  0  0  0
   24.5160   10.1610    8.3720 C   0  0  0  0  0
   24.8000   11.3390    7.5900 N   0  0  0  0  0
   26.0690   11.4280    6.9330 C   0  0  0  0  0
   26.9760   10.6540    7.2080 O   0  0  0  0  0
   26.3000   12.6530    6.0990 C   0  0  0  0  0
   25.5410   14.9020    5.3500 C   0  0  0  0  0
   26.7270   14.9910    4.5750 C   0  0  0  0  0
   27.5030   12.7710    5.3310 C   0  0  0  0  0
   27.0850   17.2840    3.2110 C   0  0  0  0  0
   27.6810   19.5010    1.8660 C   0  0  0  0  0
   28.1590   20.6910    1.1020 C   0  0  0  0  0
   29.4780   24.0830   -1.0920 N   0  0  0  0  0
   29.4460   20.6160    0.4370 C   0  0  0  0  0
   25.8870   10.6370   10.3090 N   0  3  0  0  0
   23.9130    9.2870   10.5670 C   0  0  0  0  0
   24.4046   13.5444    6.6832 H   0  0  0  0  0
   28.6415   14.0990    3.9778 H   0  0  0  0  0
   26.3596   21.8866    1.5902 H   0  0  0  0  0
   27.1502   23.9045    0.2568 H   0  0  0  0  0
   30.8525   21.7379   -0.8063 H   0  0  0  0  0
   24.1443   12.5727    9.6863 H   0  0  0  0  0
   22.6841   11.5755    9.8970 H   0  0  0  0  0
   23.7551   11.8903   11.2844 H   0  0  0  0  0
   23.8975    7.7149    7.3869 H   0  0  0  0  0
   21.8954    6.9868    6.8577 H   0  0  0  0  0
   25.2867    9.4055    8.2195 H   0  0  0  0  0
   24.1143   12.0896    7.5071 H   0  0  0  0  0
   24.8208   15.7197    5.3775 H   0  0  0  0  0
   28.2384   11.9665    5.3284 H   0  0  0  0  0
   28.9000   24.9219   -1.1428 H   0  0  0  0  0
   30.3779   24.0538   -1.5714 H   0  0  0  0  0
   30.0558   19.7144    0.4962 H   0  0  0  0  0
   26.4141    9.7950   10.0774 H   0  0  0  0  0
   26.3020   11.4401    9.8365 H   0  0  0  0  0
   25.9083   10.7862   11.3178 H   0  0  0  0  0
   23.9289    9.4476   11.6450 H   0  0  0  0  0
   22.8837    9.1560   10.2330 H   0  0  0  0  0
   24.4918    8.3964   10.3224 H   0  0  0  0  0
  1 19  4  0  0  0
 20  1  4  0  0  0
 21  2  4  0  0  0
  2 22  4  0  0  0
  3 21  1  0  0  0
 23  3  3  0  0  0
  4 23  1  0  0  0
 24  4  3  0  0  0
  5  6  4  0  0  0
 25  5  4  0  0  0
  6  7  4  0  0  0
  7  8  4  0  0  0
  7 26  1  0  0  0
  8 27  4  0  0  0
  9 10  1  0  0  0
 15  9  1  0  0  0
  9 28  1  0  0  0
  9 29  1  0  0  0
 12 11  2  0  0  0
 12 13  1  0  0  0
 15 12  1  0  0  0
 13 14  1  0  0  0
 16 15  1  0  0  0
 17 16  1  0  0  0
 17 18  2  0  0  0
 19 17  1  0  0  0
 22 19  4  0  0  0
 21 20  4  0  0  0
 24 25  1  0  0  0
 25 27  4  0  0  0
  1 30  1  0  0  0
  2 31  1  0  0  0
  5 32  1  0  0  0
  6 33  1  0  0  0
  8 34  1  0  0  0
 10 35  1  0  0  0
 10 36  1  0  0  0
 10 37  1  0  0  0
 13 38  1  0  0  0
 14 39  1  0  0  0
 15 40  1  0  0  0
 16 41  1  0  0  0
 20 42  1  0  0  0
 22 43  1  0  0  0
 26 44  1  0  0  0
 26 45  1  0  0  0
 27 46  1  0  0  0
 28 47  1  0  0  0
 28 48  1  0  0  0
 28 49  1  0  0  0
 29 50  1  0  0  0
 29 51  1  0  0  0
 29 52  1  0  0  0
M  END
$$$$
