3bx5_ligand
  -I-interpret- 

 46 47  0  0  0  0  0  0  0  0999 V2000
   -3.9560   34.7720   23.4390 C   0  0  0  0  0
   -5.1100   35.2550   22.8030 C   0  0  0  0  0
   -2.5920   36.0230   21.9120 C   0  0  0  0  0
   -2.9960   39.3860   18.0620 C   0  0  0  0  0
   -2.6850   35.1400   23.0000 C   0  0  0  0  0
   -5.0320   36.1310   21.7100 C   0  0  0  0  0
   -3.7470   36.5130   21.2620 C   0  0  0  0  0
   -2.8280   38.0290   17.9980 C   0  0  0  0  0
   -2.4400   39.2510   15.9130 C   0  0  0  0  0
   -1.4200   34.6560   23.6620 C   0  0  0  0  0
   -2.9530   37.0090   19.0050 C   0  0  0  0  0
   -6.3040   36.6290   21.0810 C   0  0  0  0  0
    0.7640   39.1240   14.9160 C   0  0  0  0  0
   -2.1660   38.4070   12.5310 C   0  0  0  0  0
   -0.4420   33.2660   25.4660 C   0  0  0  0  0
   -0.2700   38.2900   14.1850 C   0  0  0  0  0
   -1.3500   39.1690   13.5850 C   0  0  0  0  0
   -2.7830   40.0720   16.8930 N   0  0  0  0  0
   -3.6010   37.4070   20.1650 N   0  0  0  0  0
   -2.1910   39.7250   14.6500 N   0  0  0  0  0
   -1.5220   33.6100   24.5640 N   0  0  0  0  0
   -0.3440   35.1940   23.4060 O   0  0  0  0  0
   -2.5090   35.8740   18.8350 O   0  0  0  0  0
   -2.3850   37.5820   16.4130 S   0  0  0  0  0
   -4.0550   34.0982   24.2900 H   0  0  0  0  0
   -6.0890   34.9425   23.1664 H   0  0  0  0  0
   -1.6087   36.3368   21.5617 H   0  0  0  0  0
   -3.2815   39.8906   18.9850 H   0  0  0  0  0
   -6.8812   35.7814   20.7116 H   0  0  0  0  0
   -6.8877   37.1711   21.8250 H   0  0  0  0  0
   -6.0618   37.2941   20.2521 H   0  0  0  0  0
    1.2271   39.8207   14.2172 H   0  0  0  0  0
    0.2791   39.6804   15.7181 H   0  0  0  0  0
    1.5266   38.4683   15.3364 H   0  0  0  0  0
   -1.5040   38.0745   11.7314 H   0  0  0  0  0
   -2.6396   37.5421   12.9955 H   0  0  0  0  0
   -2.9316   39.0653   12.1204 H   0  0  0  0  0
    0.4435   33.0036   24.8871 H   0  0  0  0  0
   -0.2193   34.1195   26.1063 H   0  0  0  0  0
   -0.7404   32.4169   26.0809 H   0  0  0  0  0
   -0.7315   37.6036   14.8948 H   0  0  0  0  0
    0.2246   37.7450   13.3810 H   0  0  0  0  0
   -0.8801   40.0030   13.0638 H   0  0  0  0  0
   -3.9776   38.3525   20.2324 H   0  0  0  0  0
   -2.6633   40.5982   14.4157 H   0  0  0  0  0
   -2.3838   33.0653   24.5941 H   0  0  0  0  0
  2  1  4  0  0  0
  5  1  4  0  0  0
  6  2  4  0  0  0
  3  5  4  0  0  0
  7  3  4  0  0  0
  8  4  4  0  0  0
 18  4  4  0  0  0
  5 10  1  0  0  0
  7  6  4  0  0  0
  6 12  1  0  0  0
 19  7  1  0  0  0
  8 11  1  0  0  0
 24  8  4  0  0  0
  9 18  4  0  0  0
 20  9  1  0  0  0
  9 24  4  0  0  0
 10 21  1  0  0  0
 10 22  2  0  0  0
 11 19  1  0  0  0
 11 23  2  0  0  0
 16 13  1  0  0  0
 17 14  1  0  0  0
 21 15  1  0  0  0
 17 16  1  0  0  0
 17 20  1  0  0  0
  1 25  1  0  0  0
  2 26  1  0  0  0
  3 27  1  0  0  0
  4 28  1  0  0  0
 12 29  1  0  0  0
 12 30  1  0  0  0
 12 31  1  0  0  0
 13 32  1  0  0  0
 13 33  1  0  0  0
 13 34  1  0  0  0
 14 35  1  0  0  0
 14 36  1  0  0  0
 14 37  1  0  0  0
 15 38  1  0  0  0
 15 39  1  0  0  0
 15 40  1  0  0  0
 16 41  1  0  0  0
 16 42  1  0  0  0
 17 43  1  0  0  0
 19 44  1  0  0  0
 20 45  1  0  0  0
 21 46  1  0  0  0
M  END
$$$$
