1jmf_ligand
  -I-interpret- 

 33 34  0  0  0  0  0  0  0  0999 V2000
   14.7000   46.2250  -51.5450 N   0  0  0  0  0
   14.1990   44.9350  -51.3010 C   0  0  0  0  0
   13.2050   44.7180  -50.3860 N   0  0  0  0  0
   12.6180   45.6900  -49.6300 C   0  0  0  0  0
   13.1670   47.0690  -49.8880 C   0  0  0  0  0
   14.2180   47.2810  -50.8550 C   0  0  0  0  0
   14.5820   43.9050  -51.8200 O   0  0  0  0  0
   11.7630   45.2880  -48.8340 O   0  0  0  0  0
   15.5920   46.3810  -52.7540 C   0  0  0  0  0
   14.8940   46.1230  -54.0930 C   0  0  0  0  0
   15.9730   46.3300  -55.1410 C   0  0  0  0  0
   16.8350   47.4990  -54.6470 C   0  0  0  0  0
   16.7760   45.1580  -55.2110 O   0  0  0  0  0
   16.3780   47.6000  -53.1770 O   0  0  0  0  0
   16.5160   48.7610  -55.4490 C   0  0  0  0  0
   16.8950   48.5750  -56.8760 O   0  0  0  0  0
   15.9400   49.1560  -58.0410 P   0  0  0  0  0
   16.6270   49.3060  -59.3490 O   0  0  0  0  0
   14.9130   48.1150  -58.1330 O   0  0  0  0  0
   15.3230   50.4200  -57.6170 O   0  0  0  0  0
   12.8792   43.7597  -50.2600 H   0  0  0  0  0
   12.7650   47.9190  -49.3367 H   0  0  0  0  0
   14.6173   48.2807  -51.0259 H   0  0  0  0  0
   16.2831   45.6778  -52.2893 H   0  0  0  0  0
   14.0479   46.7933  -54.2447 H   0  0  0  0  0
   14.4688   45.1205  -54.1417 H   0  0  0  0  0
   15.5485   46.5325  -56.1243 H   0  0  0  0  0
   17.9119   47.3689  -54.7543 H   0  0  0  0  0
   17.4615   45.2802  -55.8718 H   0  0  0  0  0
   17.0808   49.5971  -55.0367 H   0  0  0  0  0
   15.4462   48.9608  -55.3879 H   0  0  0  0  0
   17.2978   49.9893  -59.2804 H   0  0  0  0  0
   15.9979   51.1001  -57.5576 H   0  0  0  0  0
  1  2  1  0  0  0
  1  6  1  0  0  0
  1  9  1  0  0  0
  2  3  1  0  0  0
  2  7  2  0  0  0
  3  4  1  0  0  0
  4  5  1  0  0  0
  4  8  2  0  0  0
  5  6  2  0  0  0
  9 10  1  0  0  0
  9 14  1  0  0  0
 10 11  1  0  0  0
 11 12  1  0  0  0
 11 13  1  0  0  0
 12 14  1  0  0  0
 12 15  1  0  0  0
 15 16  1  0  0  0
 16 17  1  0  0  0
 17 18  1  0  0  0
 17 19  2  0  0  0
 17 20  1  0  0  0
  3 21  1  0  0  0
  5 22  1  0  0  0
  6 23  1  0  0  0
  9 24  1  0  0  0
 10 25  1  0  0  0
 10 26  1  0  0  0
 11 27  1  0  0  0
 12 28  1  0  0  0
 13 29  1  0  0  0
 15 30  1  0  0  0
 15 31  1  0  0  0
 18 32  1  0  0  0
 20 33  1  0  0  0
M  END
$$$$
