1dx6_ligand
  -I-interpret- 

 43 46  0  0  0  0  0  0  0  0999 V2000
    2.4700   67.5340   63.2010 C   0  0  0  0  0
    2.5980   67.9070   61.9410 C   0  0  0  0  0
    3.9180   68.1530   61.2660 C   0  0  0  0  0
    5.1610   68.1640   62.2440 C   0  0  0  0  0
    5.0120   67.1520   63.4030 C   0  0  0  0  0
    3.6480   67.2060   64.1640 C   0  0  0  0  0
    5.1710   65.7760   62.8850 O   0  0  0  0  0
    4.5400   63.5580   63.7920 C   0  0  0  0  0
    3.6820   62.9140   64.7140 C   0  0  0  0  0
    2.8010   63.6430   65.5070 C   0  0  0  0  0
    1.7460   65.7880   66.3260 C   0  0  0  0  0
    2.3820   66.8880   67.1060 N   0  3  0  0  0
    2.5160   68.1600   66.3430 C   0  0  0  0  0
    3.7030   68.1500   65.3760 C   0  0  0  0  0
    4.4440   64.9750   63.7330 C   0  0  0  0  0
    3.5440   65.7100   64.5470 C   0  0  0  0  0
    2.7020   65.0540   65.4510 C   0  0  0  0  0
    5.4060   61.8070   62.3790 C   0  0  0  0  0
    5.6070   62.9560   63.1470 O   0  0  0  0  0
    4.1130   67.1290   60.3230 O   0  0  0  0  0
    1.6470   67.0900   68.4040 C   0  0  0  0  0
    1.4587   67.4490   63.5986 H   0  0  0  0  0
    1.6900   68.0451   61.3540 H   0  0  0  0  0
    3.8661   69.1466   60.8208 H   0  0  0  0  0
    5.2394   69.1614   62.6767 H   0  0  0  0  0
    6.0443   67.8878   61.6681 H   0  0  0  0  0
    5.7885   67.4321   64.1148 H   0  0  0  0  0
    3.7114   61.8282   64.8049 H   0  0  0  0  0
    2.1583   63.1033   66.2025 H   0  0  0  0  0
    0.9894   66.2366   65.6823 H   0  0  0  0  0
    1.3380   65.0724   67.0398 H   0  0  0  0  0
    3.3389   66.5974   67.3069 H   0  0  0  0  0
    2.6771   68.9643   67.0608 H   0  0  0  0  0
    1.6079   68.2938   65.7552 H   0  0  0  0  0
    3.7382   69.1549   64.9552 H   0  0  0  0  0
    4.5518   67.8074   65.9678 H   0  0  0  0  0
    5.0010   61.0159   63.0101 H   0  0  0  0  0
    4.7039   62.0273   61.5748 H   0  0  0  0  0
    6.3567   61.4842   61.9548 H   0  0  0  0  0
    3.3674   67.1058   59.7187 H   0  0  0  0  0
    0.6093   67.3506   68.1957 H   0  0  0  0  0
    1.6818   66.1696   68.9868 H   0  0  0  0  0
    2.1195   67.8956   68.9661 H   0  0  0  0  0
  1  2  2  0  0  0
  6  1  1  0  0  0
  3  2  1  0  0  0
  4  3  1  0  0  0
  3 20  1  0  0  0
  5  4  1  0  0  0
  5  6  1  0  0  0
  7  5  1  0  0  0
  6 14  1  0  0  0
  6 16  1  0  0  0
 15  7  1  0  0  0
  9  8  4  0  0  0
  8 15  4  0  0  0
  8 19  1  0  0  0
 10  9  4  0  0  0
 17 10  4  0  0  0
 11 12  1  0  0  0
 11 17  1  0  0  0
 12 13  1  0  0  0
 12 21  1  0  0  0
 13 14  1  0  0  0
 15 16  4  0  0  0
 16 17  4  0  0  0
 19 18  1  0  0  0
  1 22  1  0  0  0
  2 23  1  0  0  0
  3 24  1  0  0  0
  4 25  1  0  0  0
  4 26  1  0  0  0
  5 27  1  0  0  0
  9 28  1  0  0  0
 10 29  1  0  0  0
 11 30  1  0  0  0
 11 31  1  0  0  0
 12 32  1  0  0  0
 13 33  1  0  0  0
 13 34  1  0  0  0
 14 35  1  0  0  0
 14 36  1  0  0  0
 18 37  1  0  0  0
 18 38  1  0  0  0
 18 39  1  0  0  0
 20 40  1  0  0  0
 21 41  1  0  0  0
 21 42  1  0  0  0
 21 43  1  0  0  0
M  END
$$$$
