6dyw_ligand
  -I-interpret- 

 64 68  0  0  0  0  0  0  0  0999 V2000
   -1.0190  -16.8440  -42.2490 O   0  0  0  0  0
    0.0530  -17.8000  -42.2180 C   0  0  0  0  0
    0.6940  -17.8340  -40.8450 C   0  0  0  0  0
   -0.3190  -18.6190  -40.1210 N   0  3  0  0  0
    0.1350  -19.1110  -38.8100 C   0  0  0  0  0
    1.0830  -20.2930  -38.7120 C   0  0  0  0  0
    2.4440  -20.4260  -38.9390 C   0  0  0  0  0
    3.3050  -19.4790  -39.4120 N   0  0  0  0  0
    4.5770  -19.8510  -39.5610 C   0  0  0  0  0
    5.0400  -21.0830  -39.2890 N   0  0  0  0  0
    4.2050  -22.0470  -38.8180 C   0  0  0  0  0
    4.7190  -23.2730  -38.5540 N   0  0  0  0  0
    2.8530  -21.7080  -38.6350 C   0  0  0  0  0
    1.7360  -22.3760  -38.2170 N   0  0  0  0  0
    0.6770  -21.5340  -38.2560 C   0  0  0  0  0
   -0.8480  -19.6580  -41.0300 C   0  0  0  0  0
   -0.4640  -19.2230  -42.4300 C   0  0  0  0  0
    0.6080  -20.1660  -42.9570 C   0  0  0  0  0
    0.7780  -20.0960  -44.7030 S   0  0  0  0  0
   -0.6100  -21.0580  -45.2520 C   0  0  0  0  0
   -0.7190  -21.1850  -46.7690 C   0  0  0  0  0
   -1.9670  -22.0140  -47.0410 C   0  0  0  0  0
   -2.2710  -22.1410  -48.5080 C   0  0  0  0  0
   -1.3680  -22.4100  -49.4760 N   0  0  0  0  0
   -2.0500  -22.4390  -50.7060 N   0  0  0  0  0
   -3.3830  -22.1910  -50.3880 N   0  0  0  0  0
   -3.5300  -21.9980  -49.0850 C   0  0  0  0  0
   -4.3130  -22.1970  -51.5120 C   0  0  0  0  0
   -5.0740  -20.9010  -51.5910 C   0  0  0  0  0
   -4.5960  -19.8910  -52.4320 C   0  0  0  0  0
   -5.2930  -18.6860  -52.5360 C   0  0  0  0  0
   -6.4660  -18.5000  -51.7940 C   0  0  0  0  0
   -6.9450  -19.5150  -50.9540 C   0  0  0  0  0
   -6.2460  -20.7200  -50.8490 C   0  0  0  0  0
   -0.6641  -15.9624  -42.1134 H   0  0  0  0  0
    0.7479  -17.4976  -43.0014 H   0  0  0  0  0
    0.9010  -16.8536  -40.4159 H   0  0  0  0  0
    1.6981  -18.2575  -40.8228 H   0  0  0  0  0
   -1.0931  -18.0086  -39.8591 H   0  0  0  0  0
   -0.7770  -19.4594  -38.3252 H   0  0  0  0  0
    0.7026  -18.2784  -38.3944 H   0  0  0  0  0
    5.2863  -19.1085  -39.9267 H   0  0  0  0  0
    5.7106  -23.4546  -38.7095 H   0  0  0  0  0
    4.1142  -24.0141  -38.1998 H   0  0  0  0  0
   -0.3423  -21.7947  -37.9710 H   0  0  0  0  0
   -1.9289  -19.7570  -40.9299 H   0  0  0  0  0
   -0.4333  -20.6379  -40.7934 H   0  0  0  0  0
   -1.2710  -19.2477  -43.1623 H   0  0  0  0  0
    0.3185  -21.1825  -42.6905 H   0  0  0  0  0
    1.5598  -19.8684  -42.5169 H   0  0  0  0  0
   -1.5108  -20.5516  -44.9052 H   0  0  0  0  0
   -0.4834  -22.0642  -44.8524 H   0  0  0  0  0
    0.1672  -21.6627  -47.1867 H   0  0  0  0  0
   -0.7897  -20.2046  -47.2400 H   0  0  0  0  0
   -2.8111  -21.5136  -46.5664 H   0  0  0  0  0
   -1.7958  -23.0157  -46.6468 H   0  0  0  0  0
   -4.4600  -21.7705  -48.5640 H   0  0  0  0  0
   -5.0239  -23.0115  -51.3727 H   0  0  0  0  0
   -3.7458  -22.3257  -52.4339 H   0  0  0  0  0
   -3.6814  -20.0443  -53.0049 H   0  0  0  0  0
   -4.9266  -17.8951  -53.1904 H   0  0  0  0  0
   -7.0107  -17.5589  -51.8702 H   0  0  0  0  0
   -7.8615  -19.3642  -50.3836 H   0  0  0  0  0
   -6.6105  -21.5120  -50.1948 H   0  0  0  0  0
  1  2  1  0  0  0
  2  3  1  0  0  0
  2 17  1  0  0  0
  3  4  1  0  0  0
  4  5  1  0  0  0
  4 16  1  0  0  0
  5  6  1  0  0  0
  6  7  4  0  0  0
  6 15  4  0  0  0
  7  8  4  0  0  0
  7 13  4  0  0  0
  8  9  4  0  0  0
  9 10  4  0  0  0
 10 11  4  0  0  0
 11 12  1  0  0  0
 11 13  4  0  0  0
 13 14  4  0  0  0
 14 15  4  0  0  0
 16 17  1  0  0  0
 17 18  1  0  0  0
 18 19  1  0  0  0
 19 20  1  0  0  0
 20 21  1  0  0  0
 21 22  1  0  0  0
 22 23  1  0  0  0
 23 24  4  0  0  0
 23 27  4  0  0  0
 24 25  4  0  0  0
 25 26  4  0  0  0
 26 27  4  0  0  0
 26 28  1  0  0  0
 28 29  1  0  0  0
 29 30  4  0  0  0
 29 34  4  0  0  0
 30 31  4  0  0  0
 31 32  4  0  0  0
 32 33  4  0  0  0
 33 34  4  0  0  0
  1 35  1  0  0  0
  2 36  1  0  0  0
  3 37  1  0  0  0
  3 38  1  0  0  0
  4 39  1  0  0  0
  5 40  1  0  0  0
  5 41  1  0  0  0
  9 42  1  0  0  0
 12 43  1  0  0  0
 12 44  1  0  0  0
 15 45  1  0  0  0
 16 46  1  0  0  0
 16 47  1  0  0  0
 17 48  1  0  0  0
 18 49  1  0  0  0
 18 50  1  0  0  0
 20 51  1  0  0  0
 20 52  1  0  0  0
 21 53  1  0  0  0
 21 54  1  0  0  0
 22 55  1  0  0  0
 22 56  1  0  0  0
 27 57  1  0  0  0
 28 58  1  0  0  0
 28 59  1  0  0  0
 30 60  1  0  0  0
 31 61  1  0  0  0
 32 62  1  0  0  0
 33 63  1  0  0  0
 34 64  1  0  0  0
M  END
$$$$
