2g1q_ligand
  -I-interpret- 

 53 55  0  0  0  0  0  0  0  0999 V2000
   22.1460   16.5720  105.4300 C   0  0  0  0  0
   21.0310   16.5870  106.3280 C   0  0  0  0  0
   20.8720   15.4240  107.1610 C   0  0  0  0  0
   21.8670   14.3750  107.0430 C   0  0  0  0  0
   22.9670   14.3710  106.1260 C   0  0  0  0  0
   23.0910   15.5070  105.2860 C   0  0  0  0  0
   19.7110   15.3360  108.1100 C   0  0  0  0  0
   19.0180   16.3610  108.6240 N   0  0  0  0  0
   18.1030   15.9790  109.5870 N   0  0  0  0  0
   18.0150   14.5180  109.6450 C   0  0  0  0  0
   19.3160   14.1440  108.9590 C   0  0  0  0  0
   18.0570   14.0090  111.1000 C   0  0  0  0  0
   17.2450   12.8820  111.5650 C   0  0  0  0  0
   17.3820   12.3720  112.9470 C   0  0  0  0  0
   18.3290   13.0230  113.8590 C   0  0  0  0  0
   19.1230   14.1550  113.4340 C   0  0  0  0  0
   18.9650   14.6470  112.0540 C   0  0  0  0  0
   17.0760   16.8160  110.1080 C   0  0  0  0  0
   17.1770   18.1730  110.0160 N   0  0  0  0  0
   16.0940   19.1500  110.2760 C   0  0  0  0  0
   16.1400   16.2160  110.6230 O   0  0  0  0  0
   21.7860   13.3450  107.8640 F   0  0  0  0  0
   22.3250   17.6150  104.6930 F   0  0  0  0  0
   16.8120   13.9780  108.7570 C   0  0  0  0  0
   16.7200   14.4850  107.2450 C   0  0  0  0  0
   15.1130   19.2480  109.1050 C   0  0  0  0  0
   15.6870   13.9620  106.1350 C   0  0  0  0  0
   15.8870   12.5840  105.6320 N   0  3  0  0  0
   20.3423   17.4304  106.3780 H   0  0  0  0  0
   23.6707   13.5401  106.0763 H   0  0  0  0  0
   23.8893   15.5676  104.5463 H   0  0  0  0  0
   20.0903   13.9109  109.6899 H   0  0  0  0  0
   19.1921   13.2513  108.3459 H   0  0  0  0  0
   16.5324   12.4142  110.8857 H   0  0  0  0  0
   16.7867   11.5231  113.2834 H   0  0  0  0  0
   18.4363   12.6465  114.8763 H   0  0  0  0  0
   19.8226   14.6334  114.1193 H   0  0  0  0  0
   19.5429   15.5138  111.7335 H   0  0  0  0  0
   18.0840   18.5510  109.7423 H   0  0  0  0  0
   16.5482   20.1301  110.4217 H   0  0  0  0  0
   15.5415   18.8189  111.1554 H   0  0  0  0  0
   15.9056   14.3404  109.2420 H   0  0  0  0  0
   16.9563   12.8994  108.6949 H   0  0  0  0  0
   17.6744   14.1510  106.8381 H   0  0  0  0  0
   16.4048   15.5204  107.3745 H   0  0  0  0  0
   15.6483   19.5642  108.2097 H   0  0  0  0  0
   14.6571   18.2731  108.9321 H   0  0  0  0  0
   14.3375   19.9762  109.3423 H   0  0  0  0  0
   15.8175   14.6166  105.2733 H   0  0  0  0  0
   14.7073   13.9665  106.6127 H   0  0  0  0  0
   15.1725   12.3703  104.9361 H   0  0  0  0  0
   16.8109   12.5095  105.2064 H   0  0  0  0  0
   15.8148   11.9262  106.4082 H   0  0  0  0  0
  1  2  4  0  0  0
  1  6  4  0  0  0
  1 23  1  0  0  0
  2  3  4  0  0  0
  3  4  4  0  0  0
  3  7  1  0  0  0
  4  5  4  0  0  0
  4 22  1  0  0  0
  5  6  4  0  0  0
  7  8  2  0  0  0
  7 11  1  0  0  0
  8  9  1  0  0  0
  9 10  1  0  0  0
  9 18  1  0  0  0
 10 11  1  0  0  0
 10 12  1  0  0  0
 10 24  1  0  0  0
 12 13  4  0  0  0
 12 17  4  0  0  0
 13 14  4  0  0  0
 14 15  4  0  0  0
 15 16  4  0  0  0
 16 17  4  0  0  0
 18 19  1  0  0  0
 18 21  2  0  0  0
 19 20  1  0  0  0
 20 26  1  0  0  0
 24 25  1  0  0  0
 25 27  1  0  0  0
 27 28  1  0  0  0
  2 29  1  0  0  0
  5 30  1  0  0  0
  6 31  1  0  0  0
 11 32  1  0  0  0
 11 33  1  0  0  0
 13 34  1  0  0  0
 14 35  1  0  0  0
 15 36  1  0  0  0
 16 37  1  0  0  0
 17 38  1  0  0  0
 19 39  1  0  0  0
 20 40  1  0  0  0
 20 41  1  0  0  0
 24 42  1  0  0  0
 24 43  1  0  0  0
 25 44  1  0  0  0
 25 45  1  0  0  0
 26 46  1  0  0  0
 26 47  1  0  0  0
 26 48  1  0  0  0
 27 49  1  0  0  0
 27 50  1  0  0  0
 28 51  1  0  0  0
 28 52  1  0  0  0
 28 53  1  0  0  0
M  END
$$$$
