6j9w_ligand
  -I-interpret- 

 45 46  0  0  0  0  0  0  0  0999 V2000
   -6.5720  -32.4110  -14.0950 C   0  0  0  0  0
   -7.8800  -32.1940  -13.3780 C   0  0  0  0  0
   -8.7470  -31.2120  -14.1950 C   0  0  0  0  0
   -7.9280  -29.9160  -14.3730 C   0  0  0  0  0
   -6.6190  -30.2440  -15.0670 C   0  0  0  0  0
   -5.7580  -29.0060  -15.2920 C   0  0  0  0  0
   -6.8150  -33.0670  -15.3610 O   0  0  0  0  0
   -8.6150  -33.3930  -13.2720 O   0  0  0  0  0
   -9.9230  -30.8280  -13.4600 O   0  0  0  0  0
   -8.7160  -28.9020  -15.0600 O   0  0  0  0  0
   -5.8620  -31.1800  -14.3140 O   0  0  0  0  0
   -4.5720  -29.3070  -16.0870 O   0  0  0  0  0
   -5.5870  -33.5750  -15.9560 C   0  0  0  0  0
   -5.8620  -34.1020  -17.3340 C   0  0  0  0  0
   -6.6840  -35.3830  -17.2880 C   0  0  0  0  0
   -6.0230  -36.3670  -16.3510 C   0  0  0  0  0
   -5.8430  -35.7310  -14.9940 C   0  0  0  0  0
   -5.1360  -36.7320  -14.0930 C   0  0  0  0  0
   -6.5200  -33.1320  -18.1440 O   0  0  0  0  0
   -6.7910  -35.9540  -18.6170 O   0  0  0  0  0
   -6.8480  -37.5190  -16.2160 O   0  0  0  0  0
   -4.9970  -34.5700  -15.1110 O   0  0  0  0  0
   -5.5230  -36.5170  -12.8150 O   0  0  0  0  0
   -5.9483  -33.0400  -13.4599 H   0  0  0  0  0
   -7.6501  -31.8111  -12.3837 H   0  0  0  0  0
   -9.0263  -31.6898  -15.1340 H   0  0  0  0  0
   -7.6786  -29.4871  -13.4025 H   0  0  0  0  0
   -6.8897  -30.6686  -16.0337 H   0  0  0  0  0
   -5.4334  -28.6336  -14.3204 H   0  0  0  0  0
   -6.3530  -28.2685  -15.8306 H   0  0  0  0  0
   -8.1084  -34.0341  -12.7681 H   0  0  0  0  0
  -10.4761  -31.5996  -13.3176 H   0  0  0  0  0
   -9.5266  -28.7427  -14.5710 H   0  0  0  0  0
   -4.0568  -28.5059  -16.2070 H   0  0  0  0  0
   -4.8686  -32.7607  -16.0498 H   0  0  0  0  0
   -4.8947  -34.3274  -17.7830 H   0  0  0  0  0
   -7.6869  -35.1569  -16.9257 H   0  0  0  0  0
   -5.0517  -36.6518  -16.7554 H   0  0  0  0  0
   -6.8143  -35.4457  -14.5900 H   0  0  0  0  0
   -4.0565  -36.6075  -14.1780 H   0  0  0  0  0
   -5.3970  -37.7471  -14.3923 H   0  0  0  0  0
   -6.6804  -33.5005  -19.0158 H   0  0  0  0  0
   -7.3105  -36.7603  -18.5768 H   0  0  0  0  0
   -6.4279  -38.1441  -15.6207 H   0  0  0  0  0
   -5.0815  -37.1447  -12.2382 H   0  0  0  0  0
  1  2  1  0  0  0
  7  1  1  0  0  0
  1 11  1  0  0  0
  2  3  1  0  0  0
  2  8  1  0  0  0
  3  4  1  0  0  0
  3  9  1  0  0  0
  5  4  1  0  0  0
  4 10  1  0  0  0
  5  6  1  0  0  0
 11  5  1  0  0  0
  6 12  1  0  0  0
 13  7  1  0  0  0
 13 14  1  0  0  0
 22 13  1  0  0  0
 15 14  1  0  0  0
 14 19  1  0  0  0
 16 15  1  0  0  0
 15 20  1  0  0  0
 17 16  1  0  0  0
 16 21  1  0  0  0
 18 17  1  0  0  0
 17 22  1  0  0  0
 23 18  1  0  0  0
  1 24  1  0  0  0
  2 25  1  0  0  0
  3 26  1  0  0  0
  4 27  1  0  0  0
  5 28  1  0  0  0
  6 29  1  0  0  0
  6 30  1  0  0  0
  8 31  1  0  0  0
  9 32  1  0  0  0
 10 33  1  0  0  0
 12 34  1  0  0  0
 13 35  1  0  0  0
 14 36  1  0  0  0
 15 37  1  0  0  0
 16 38  1  0  0  0
 17 39  1  0  0  0
 18 40  1  0  0  0
 18 41  1  0  0  0
 19 42  1  0  0  0
 20 43  1  0  0  0
 21 44  1  0  0  0
 23 45  1  0  0  0
M  END
$$$$
