3kqe_ligand
  -I-interpret- 

 73 79  0  0  0  0  0  0  0  0999 V2000
   38.8740   35.7590   21.0710 C   0  0  0  0  0
   38.4390   35.9110   22.3910 C   0  0  0  0  0
   38.7380   26.5980   14.5640 C   0  0  0  0  0
   38.2270   34.8540   20.2250 C   0  0  0  0  0
   35.9220   33.6460   18.5920 C   0  0  0  0  0
   36.4800   31.7730   20.0630 C   0  0  0  0  0
   39.2600   27.2910   13.4580 C   0  0  0  0  0
   37.3760   35.1400   22.8730 C   0  0  0  0  0
   37.4000   26.7590   14.9290 C   0  0  0  0  0
   35.3030   32.7570   17.7020 C   0  0  0  0  0
   35.8580   30.8850   19.1750 C   0  0  0  0  0
   37.0910   28.3000   13.0870 C   0  0  0  0  0
   36.5140   33.1530   19.7760 C   0  0  0  0  0
   37.1570   34.0850   20.6960 C   0  0  0  0  0
   38.4300   28.1540   12.7200 C   0  0  0  0  0
   33.3670   28.6980   15.2420 C   0  0  0  0  0
   36.7280   34.2320   22.0270 C   0  0  0  0  0
   36.5760   27.6080   14.1810 C   0  0  0  0  0
   35.2620   31.3810   18.0010 C   0  0  0  0  0
   34.7360   28.7680   15.3600 C   0  0  0  0  0
   33.1450   27.7270   14.2450 C   0  0  0  0  0
   38.9280   28.8560   11.5570 C   0  0  0  0  0
   35.4450   29.6380   16.2760 C   0  0  0  0  0
   38.8130   30.1330    9.7910 C   0  0  0  0  0
   32.4800   29.5390   16.0790 C   0  0  0  0  0
   32.7070   34.3530   21.6370 C   0  0  0  0  0
   32.2260   33.6230   22.8840 C   0  0  0  0  0
   33.2330   30.7890   16.6070 C   0  0  0  0  0
   33.9100   35.1420   22.1120 C   0  0  0  0  0
   33.4570   33.4710   23.7700 C   0  0  0  0  0
   31.8620   27.2480   13.7090 C   0  0  0  0  0
   35.5870   33.4380   22.5960 C   0  0  0  0  0
   34.2890   27.2090   13.7660 N   0  0  0  0  0
   40.1340   28.8030   11.0880 N   0  0  0  0  0
   35.2360   27.8450   14.4760 N   0  0  0  0  0
   38.0750   29.6210   10.8380 N   0  0  0  0  0
   40.0950   29.6050    9.9780 N   0  0  0  0  0
   34.6250   30.4800   17.0730 N   0  0  0  0  0
   34.5140   34.2820   23.1400 N   0  3  0  0  0
   36.6570   29.6560   16.3240 O   0  0  0  0  0
   38.4380   30.8830    8.8950 O   0  0  0  0  0
   39.7159   36.3450   20.7025 H   0  0  0  0  0
   38.9291   36.6316   23.0457 H   0  0  0  0  0
   39.3808   25.9318   15.1394 H   0  0  0  0  0
   38.5579   34.7465   19.1920 H   0  0  0  0  0
   35.9463   34.7131   18.3712 H   0  0  0  0  0
   36.9384   31.3961   20.9773 H   0  0  0  0  0
   40.3040   27.1601   13.1734 H   0  0  0  0  0
   37.0519   35.2463   23.9083 H   0  0  0  0  0
   36.9993   26.2265   15.7916 H   0  0  0  0  0
   34.8546   33.1296   16.7810 H   0  0  0  0  0
   35.8361   29.8171   19.3924 H   0  0  0  0  0
   36.4426   28.9614   12.5124 H   0  0  0  0  0
   32.1414   28.9494   16.9309 H   0  0  0  0  0
   31.6371   29.8694   15.4720 H   0  0  0  0  0
   31.9353   34.9944   21.2114 H   0  0  0  0  0
   32.9575   33.6664   20.8283 H   0  0  0  0  0
   31.7913   32.6547   22.6362 H   0  0  0  0  0
   31.4362   34.1776   23.3908 H   0  0  0  0  0
   32.6756   31.1774   17.4594 H   0  0  0  0  0
   33.3078   31.5031   15.7869 H   0  0  0  0  0
   33.6345   36.1219   22.5019 H   0  0  0  0  0
   34.6032   35.3674   21.3016 H   0  0  0  0  0
   33.7574   32.4264   23.8525 H   0  0  0  0  0
   33.2551   33.8070   24.7871 H   0  0  0  0  0
   31.2718   26.8141   14.5161 H   0  0  0  0  0
   31.3187   28.0842   13.2688 H   0  0  0  0  0
   32.0479   26.4919   12.9462 H   0  0  0  0  0
   35.9792   32.8323   23.4130 H   0  0  0  0  0
   35.1627   32.8414   21.7884 H   0  0  0  0  0
   37.0870   29.7858   11.0308 H   0  0  0  0  0
   40.8926   29.7919    9.3702 H   0  0  0  0  0
   34.9513   34.8750   23.8454 H   0  0  0  0  0
  2  1  4  0  0  0
  4  1  4  0  0  0
  8  2  4  0  0  0
  3  7  4  0  0  0
  9  3  4  0  0  0
 14  4  4  0  0  0
  5 10  4  0  0  0
 13  5  4  0  0  0
  6 11  4  0  0  0
 13  6  4  0  0  0
 15  7  4  0  0  0
 17  8  4  0  0  0
 18  9  4  0  0  0
 10 19  4  0  0  0
 11 19  4  0  0  0
 12 15  4  0  0  0
 18 12  4  0  0  0
 14 13  1  0  0  0
 17 14  4  0  0  0
 15 22  1  0  0  0
 20 16  4  0  0  0
 16 21  4  0  0  0
 25 16  1  0  0  0
 32 17  1  0  0  0
 35 18  1  0  0  0
 19 38  1  0  0  0
 23 20  1  0  0  0
 20 35  4  0  0  0
 21 31  1  0  0  0
 21 33  4  0  0  0
 22 34  2  0  0  0
 22 36  1  0  0  0
 38 23  1  0  0  0
 23 40  2  0  0  0
 36 24  1  0  0  0
 24 37  1  0  0  0
 24 41  2  0  0  0
 28 25  1  0  0  0
 27 26  1  0  0  0
 29 26  1  0  0  0
 30 27  1  0  0  0
 38 28  1  0  0  0
 39 29  1  0  0  0
 39 30  1  0  0  0
 32 39  1  0  0  0
 33 35  4  0  0  0
 34 37  1  0  0  0
  1 42  1  0  0  0
  2 43  1  0  0  0
  3 44  1  0  0  0
  4 45  1  0  0  0
  5 46  1  0  0  0
  6 47  1  0  0  0
  7 48  1  0  0  0
  8 49  1  0  0  0
  9 50  1  0  0  0
 10 51  1  0  0  0
 11 52  1  0  0  0
 12 53  1  0  0  0
 25 54  1  0  0  0
 25 55  1  0  0  0
 26 56  1  0  0  0
 26 57  1  0  0  0
 27 58  1  0  0  0
 27 59  1  0  0  0
 28 60  1  0  0  0
 28 61  1  0  0  0
 29 62  1  0  0  0
 29 63  1  0  0  0
 30 64  1  0  0  0
 30 65  1  0  0  0
 31 66  1  0  0  0
 31 67  1  0  0  0
 31 68  1  0  0  0
 32 69  1  0  0  0
 32 70  1  0  0  0
 36 71  1  0  0  0
 37 72  1  0  0  0
 39 73  1  0  0  0
M  END
$$$$
