### 
### Created by X-TOOL on Mon Sep 10 21:13:03 2018
### 

@<TRIPOS>MOLECULE
3kqe_ligand
   72    78     1     0     0
SMALL
GAST_HUCK


@<TRIPOS>ATOM
      1 C1         38.8740   35.7590   21.0710 C.ar      1 LGM        -0.0703
      2 C2         38.4390   35.9110   22.3910 C.ar      1 LGM        -0.0705
      3 C3         38.7380   26.5980   14.5640 C.ar      1 LGM        -0.0669
      4 C4         38.2270   34.8540   20.2250 C.ar      1 LGM        -0.0639
      5 C5         35.9220   33.6460   18.5920 C.ar      1 LGM        -0.0678
      6 C6         36.4800   31.7730   20.0630 C.ar      1 LGM        -0.0678
      7 C7         39.2600   27.2910   13.4580 C.ar      1 LGM        -0.0598
      8 C8         37.3760   35.1400   22.8730 C.ar      1 LGM        -0.0634
      9 C9         37.4000   26.7590   14.9290 C.ar      1 LGM        -0.0279
     10 C10        35.3030   32.7570   17.7020 C.ar      1 LGM        -0.0398
     11 C11        35.8580   30.8850   19.1750 C.ar      1 LGM        -0.0398
     12 C12        37.0910   28.3000   13.0870 C.ar      1 LGM        -0.0179
     13 C13        36.5140   33.1530   19.7760 C.ar      1 LGM        -0.0355
     14 C14        37.1570   34.0850   20.6960 C.ar      1 LGM        -0.0266
     15 C15        38.4300   28.1540   12.7200 C.ar      1 LGM         0.0125
     16 C16        33.3670   28.6980   15.2420 C.2       1 LGM         0.0017
     17 C17        36.7280   34.2320   22.0270 C.ar      1 LGM        -0.0576
     18 C18        36.5760   27.6080   14.1810 C.ar      1 LGM         0.1059
     19 C19        35.2620   31.3810   18.0010 C.ar      1 LGM         0.0700
     20 C20        34.7360   28.7680   15.3600 C.2       1 LGM         0.1726
     21 C21        33.1450   27.7270   14.2450 C.2       1 LGM         0.0229
     22 C22        38.9280   28.8560   11.5570 C.2       1 LGM         0.1515
     23 C23        35.4450   29.6380   16.2760 C.2       1 LGM         0.2543
     24 C24        38.8130   30.1330    9.7910 C.2       1 LGM         0.3193
     25 C25        32.4800   29.5390   16.0790 C.3       1 LGM        -0.0017
     26 C26        32.7070   34.3530   21.6370 C.3       1 LGM        -0.0733
     27 C27        32.2260   33.6230   22.8840 C.3       1 LGM        -0.0733
     28 C28        33.2330   30.7890   16.6070 C.3       1 LGM         0.0612
     29 C29        33.9100   35.1420   22.1120 C.3       1 LGM        -0.1103
     30 C30        33.4570   33.4710   23.7700 C.3       1 LGM        -0.1103
     31 C31        31.8620   27.2480   13.7090 C.3       1 LGM        -0.0260
     32 C32        35.5870   33.4380   22.5960 C.3       1 LGM        -0.0760
     33 N33        34.2890   27.2090   13.7660 N.2       1 LGM        -0.2071
     34 N34        40.1340   28.8030   11.0880 N.2       1 LGM        -0.1947
     35 N35        35.2360   27.8450   14.4760 N.pl3     1 LGM        -0.1608
     36 N36        38.0750   29.6210   10.8380 N.am      1 LGM        -0.2055
     37 N37        40.0950   29.6050    9.9780 N.am      1 LGM        -0.1724
     38 N38        34.6250   30.4800   17.0730 N.am      1 LGM        -0.2172
     39 N39        34.5140   34.2820   23.1400 N.4       1 LGM         0.4080
     40 O40        36.6570   29.6560   16.3240 O.2       1 LGM        -0.3780
     41 O41        38.4380   30.8830    8.8950 O.2       1 LGM        -0.4039
     42 H          39.7159   36.3450   20.7025 H         1 LGM         0.0555
     43 H          38.9291   36.6316   23.0457 H         1 LGM         0.0583
     44 H          39.3808   25.9318   15.1394 H         1 LGM         0.0596
     45 H          38.5579   34.7465   19.1920 H         1 LGM         0.0584
     46 H          35.9463   34.7131   18.3712 H         1 LGM         0.0580
     47 H          36.9384   31.3961   20.9773 H         1 LGM         0.0580
     48 H          40.3040   27.1601   13.1734 H         1 LGM         0.0552
     49 H          37.0519   35.2463   23.9083 H         1 LGM         0.0550
     50 H          36.9993   26.2265   15.7916 H         1 LGM         0.0572
     51 H          34.8546   33.1296   16.7810 H         1 LGM         0.0508
     52 H          35.8361   29.8171   19.3924 H         1 LGM         0.0508
     53 H          36.4426   28.9614   12.5124 H         1 LGM         0.0574
     54 H          32.1414   28.9494   16.9309 H         1 LGM         0.0399
     55 H          31.6371   29.8694   15.4720 H         1 LGM         0.0399
     56 H          31.9353   34.9944   21.2114 H         1 LGM         0.0245
     57 H          32.9575   33.6664   20.8283 H         1 LGM         0.0245
     58 H          31.7913   32.6547   22.6362 H         1 LGM         0.0245
     59 H          31.4362   34.1776   23.3908 H         1 LGM         0.0245
     60 H          32.6756   31.1774   17.4594 H         1 LGM         0.0604
     61 H          33.3078   31.5031   15.7869 H         1 LGM         0.0604
     62 H          33.6345   36.1219   22.5019 H         1 LGM         0.0020
     63 H          34.6032   35.3674   21.3016 H         1 LGM         0.0020
     64 H          33.7574   32.4264   23.8525 H         1 LGM         0.0020
     65 H          33.2551   33.8070   24.7871 H         1 LGM         0.0020
     66 H          31.8219   27.4431   12.6373 H         1 LGM         0.0374
     67 H          31.7721   26.1766   13.8882 H         1 LGM         0.0374
     68 H          31.0444   27.7706   14.2056 H         1 LGM         0.0374
     69 H          35.9792   32.8323   23.4130 H         1 LGM         0.0184
     70 H          35.1627   32.8414   21.7884 H         1 LGM         0.0184
     71 H          37.0870   29.7858   11.0308 H         1 LGM         0.2315
     72 H          40.8926   29.7919    9.3702 H         1 LGM         0.2451
@<TRIPOS>BOND
     1    2    1 ar 
     2    4    1 ar 
     3    8    2 ar 
     4    3    7 ar 
     5    9    3 ar 
     6   14    4 ar 
     7    5   10 ar 
     8   13    5 ar 
     9    6   11 ar 
    10   13    6 ar 
    11   15    7 ar 
    12   17    8 ar 
    13   18    9 ar 
    14   10   19 ar 
    15   11   19 ar 
    16   12   15 ar 
    17   18   12 ar 
    18   14   13 1  
    19   17   14 ar 
    20   15   22 1  
    21   20   16 2  
    22   16   21 1  
    23   25   16 1  
    24   32   17 1  
    25   35   18 1  
    26   19   38 1  
    27   23   20 1  
    28   20   35 1  
    29   21   31 1  
    30   21   33 2  
    31   22   34 2  
    32   22   36 1  
    33   38   23 am 
    34   23   40 2  
    35   36   24 am 
    36   24   37 am 
    37   24   41 2  
    38   28   25 1  
    39   27   26 1  
    40   29   26 1  
    41   30   27 1  
    42   38   28 1  
    43   39   29 1  
    44   39   30 1  
    45   32   39 1  
    46   33   35 1  
    47   34   37 1  
    48    1   42 1  
    49    2   43 1  
    50    3   44 1  
    51    4   45 1  
    52    5   46 1  
    53    6   47 1  
    54    7   48 1  
    55    8   49 1  
    56    9   50 1  
    57   10   51 1  
    58   11   52 1  
    59   12   53 1  
    60   25   54 1  
    61   25   55 1  
    62   26   56 1  
    63   26   57 1  
    64   27   58 1  
    65   27   59 1  
    66   28   60 1  
    67   28   61 1  
    68   29   62 1  
    69   29   63 1  
    70   30   64 1  
    71   30   65 1  
    72   31   66 1  
    73   31   67 1  
    74   31   68 1  
    75   32   69 1  
    76   32   70 1  
    77   36   71 1  
    78   37   72 1  
@<TRIPOS>SUBSTRUCTURE
     1 LGM         1

