5ul1_ligand
  -I-interpret- 

 57 59  0  0  0  0  0  0  0  0999 V2000
   -1.1840   -4.4540  -13.7470 C   0  0  0  0  0
   -2.3020   -3.4000  -14.0410 C   0  0  0  0  0
   -4.2520   -3.0280  -12.6100 C   0  0  0  0  0
    0.0350   -3.3870  -15.8270 O   0  0  0  0  0
    4.3700  -11.7090  -20.0620 O   0  0  0  0  0
    1.8710   -9.6960  -16.7060 C   0  0  0  0  0
    1.8390  -10.8370  -15.9020 C   0  0  0  0  0
    2.8290  -12.1010  -17.5580 C   0  0  0  0  0
    2.8580  -10.9440  -18.3910 C   0  0  0  0  0
    3.4770  -10.9180  -19.7650 C   0  0  0  0  0
    3.4230   -9.7700  -21.9580 C   0  0  0  0  0
    3.0550   -8.5920  -22.5990 C   0  0  0  0  0
    3.5190   -8.3260  -23.8780 C   0  0  0  0  0
    4.3440   -9.2280  -24.5250 C   0  0  0  0  0
    4.7040  -10.4050  -23.8950 C   0  0  0  0  0
    4.2460  -10.6820  -22.6170 C   0  0  0  0  0
   -3.6390   -3.8750  -13.6290 N   0  3  0  0  0
   -0.9070   -4.5390  -12.2530 C   0  0  0  0  0
    1.3690   -3.7960  -13.7840 O   0  0  0  0  0
    0.7590   -6.0800  -16.6480 C   0  0  0  0  0
   -4.5460   -4.0290  -14.7640 C   0  0  0  0  0
    0.7510   -5.8290  -15.2820 C   0  0  0  0  0
    1.0920   -6.8210  -14.3790 C   0  0  0  0  0
    1.4420   -8.0740  -14.8480 C   0  0  0  0  0
    1.4660   -8.3570  -16.2150 C   0  0  0  0  0
    1.1160   -7.3380  -17.1020 C   0  0  0  0  0
    2.3080  -12.0140  -16.3140 N   0  0  0  0  0
    3.2980  -13.2880  -17.9500 N   0  0  0  0  0
    2.3720   -9.7660  -17.9570 N   0  0  0  0  0
    2.9900   -9.9970  -20.6290 N   0  0  0  0  0
    0.3320   -4.2160  -14.6990 S   0  0  0  0  0
   -1.5762   -5.4122  -14.0878 H   0  0  0  0  0
   -2.3228   -3.2185  -15.1156 H   0  0  0  0  0
   -2.0738   -2.4967  -13.4752 H   0  0  0  0  0
   -4.4650   -2.0470  -13.0348 H   0  0  0  0  0
   -5.1799   -3.4866  -12.2682 H   0  0  0  0  0
   -3.5672   -2.9202  -11.7689 H   0  0  0  0  0
    1.4148  -10.7621  -14.9007 H   0  0  0  0  0
    2.4023   -7.8784  -22.0962 H   0  0  0  0  0
    3.2319   -7.4003  -24.3768 H   0  0  0  0  0
    4.7094   -9.0116  -25.5289 H   0  0  0  0  0
    5.3509  -11.1181  -24.4060 H   0  0  0  0  0
    4.5293  -11.6134  -22.1267 H   0  0  0  0  0
   -3.4823   -4.7944  -13.2159 H   0  0  0  0  0
   -0.2428   -5.3803  -12.0552 H   0  0  0  0  0
   -0.4345   -3.6152  -11.9192 H   0  0  0  0  0
   -1.8460   -4.6822  -11.7183 H   0  0  0  0  0
    0.4873   -5.2955  -17.3543 H   0  0  0  0  0
   -5.4743   -4.4893  -14.4257 H   0  0  0  0  0
   -4.7595   -3.0497  -15.1923 H   0  0  0  0  0
   -4.0784   -4.6625  -15.5177 H   0  0  0  0  0
    1.0847   -6.6166  -13.3084 H   0  0  0  0  0
    1.7044   -8.8565  -14.1360 H   0  0  0  0  0
    1.1239   -7.5367  -18.1737 H   0  0  0  0  0
    3.6990  -13.3955  -18.8817 H   0  0  0  0  0
    3.2553  -14.0873  -17.3178 H   0  0  0  0  0
    2.2327   -9.4052  -20.2875 H   0  0  0  0  0
  1  2  1  0  0  0
  1 18  1  0  0  0
 31  1  1  0  0  0
  2 17  1  0  0  0
 17  3  1  0  0  0
 31  4  2  0  0  0
 10  5  2  0  0  0
  6  7  4  0  0  0
 25  6  1  0  0  0
  6 29  4  0  0  0
  7 27  4  0  0  0
  9  8  4  0  0  0
 27  8  4  0  0  0
  8 28  1  0  0  0
  9 10  1  0  0  0
 29  9  4  0  0  0
 10 30  1  0  0  0
 11 12  4  0  0  0
 11 16  4  0  0  0
 30 11  1  0  0  0
 12 13  4  0  0  0
 13 14  4  0  0  0
 15 14  4  0  0  0
 16 15  4  0  0  0
 17 21  1  0  0  0
 31 19  2  0  0  0
 22 20  4  0  0  0
 20 26  4  0  0  0
 23 22  4  0  0  0
 22 31  1  0  0  0
 24 23  4  0  0  0
 24 25  4  0  0  0
 25 26  4  0  0  0
  1 32  1  0  0  0
  2 33  1  0  0  0
  2 34  1  0  0  0
  3 35  1  0  0  0
  3 36  1  0  0  0
  3 37  1  0  0  0
  7 38  1  0  0  0
 12 39  1  0  0  0
 13 40  1  0  0  0
 14 41  1  0  0  0
 15 42  1  0  0  0
 16 43  1  0  0  0
 17 44  1  0  0  0
 18 45  1  0  0  0
 18 46  1  0  0  0
 18 47  1  0  0  0
 20 48  1  0  0  0
 21 49  1  0  0  0
 21 50  1  0  0  0
 21 51  1  0  0  0
 23 52  1  0  0  0
 24 53  1  0  0  0
 26 54  1  0  0  0
 28 55  1  0  0  0
 28 56  1  0  0  0
 30 57  1  0  0  0
M  END
$$$$
