5buj_ligand
  -I-interpret- 

 36 39  0  0  0  0  0  0  0  0999 V2000
  -17.7200    1.1420   14.6690 C   0  0  0  0  0
  -16.3730    1.3040   14.1990 C   0  0  0  0  0
  -17.7060    2.3430   16.8780 C   0  0  0  0  0
  -18.4160    2.9500   17.8940 C   0  0  0  0  0
  -20.4060    2.5440   16.8680 C   0  0  0  0  0
  -19.7890    1.9100   15.8070 C   0  0  0  0  0
  -12.7590    2.0790   14.4280 C   0  0  0  0  0
  -12.5250    2.7030   15.6910 C   0  0  0  0  0
  -11.2610    2.8240   16.1470 C   0  0  0  0  0
  -10.3190    1.7700   14.2030 C   0  0  0  0  0
  -11.6530    1.6040   13.7240 C   0  0  0  0  0
  -18.3310    0.2400   13.9000 N   0  0  0  0  0
  -16.2400    0.4660   13.1050 C   0  0  0  0  0
  -17.4450   -0.1770   12.9630 N   0  0  0  0  0
  -15.2300    2.1060   14.7350 C   0  0  0  0  0
  -14.0580    1.9870   13.8650 N   0  0  0  0  0
  -14.3310    1.7430   12.4410 C   0  0  0  0  0
  -15.0090    0.3980   12.2640 C   0  0  0  0  0
  -18.4020    1.8120   15.7980 C   0  0  0  0  0
  -19.7490    3.0610   17.9080 N   0  0  0  0  0
  -10.2040    2.3890   15.4190 N   0  0  0  0  0
   -9.2910    1.4260   13.6000 O   0  0  0  0  0
  -16.6186    2.2810   16.9216 H   0  0  0  0  0
  -17.8579    3.3631   18.7342 H   0  0  0  0  0
  -21.4928    2.6267   16.8549 H   0  0  0  0  0
  -20.3794    1.4937   14.9908 H   0  0  0  0  0
  -13.3606    3.0784   16.2817 H   0  0  0  0  0
  -11.0864    3.2811   17.1210 H   0  0  0  0  0
  -11.6675    2.1869   12.8031 H   0  0  0  0  0
  -11.7929    0.5230   13.7288 H   0  0  0  0  0
  -14.9719    1.7315   15.7256 H   0  0  0  0  0
  -15.5275    3.1535   14.7826 H   0  0  0  0  0
  -13.3901    1.7447   11.8907 H   0  0  0  0  0
  -14.9870    2.5271   12.0628 H   0  0  0  0  0
  -15.2469    0.2023   11.2184 H   0  0  0  0  0
  -14.3593   -0.4227   12.5681 H   0  0  0  0  0
  2  1  4  0  0  0
  1 12  4  0  0  0
  1 19  1  0  0  0
  2 13  4  0  0  0
 15  2  1  0  0  0
  3  4  4  0  0  0
 19  3  4  0  0  0
  4 20  4  0  0  0
  6  5  4  0  0  0
  5 20  4  0  0  0
 19  6  4  0  0  0
  7  8  2  0  0  0
  7 11  1  0  0  0
 16  7  1  0  0  0
  8  9  1  0  0  0
  9 21  2  0  0  0
 11 10  1  0  0  0
 10 21  1  0  0  0
 10 22  2  0  0  0
 14 12  4  0  0  0
 13 14  4  0  0  0
 13 18  1  0  0  0
 15 16  1  0  0  0
 16 17  1  0  0  0
 17 18  1  0  0  0
  3 23  1  0  0  0
  4 24  1  0  0  0
  5 25  1  0  0  0
  6 26  1  0  0  0
  8 27  1  0  0  0
  9 28  1  0  0  0
 11 29  1  0  0  0
 11 30  1  0  0  0
 15 31  1  0  0  0
 15 32  1  0  0  0
 17 33  1  0  0  0
 17 34  1  0  0  0
 18 35  1  0  0  0
 18 36  1  0  0  0
M  END
$$$$
