2wxk_ligand
  -I-interpret- 

 65 71  0  0  0  0  0  0  0  0999 V2000
   13.5220   -1.6130   23.1580 C   0  0  0  0  0
   14.0270   -0.8820   24.4470 C   0  0  0  0  0
   15.5460   -1.0440   24.4290 N   0  3  0  0  0
   16.0400   -0.6250   23.0450 C   0  0  0  0  0
   15.9520   -2.5120   24.7130 C   0  0  0  0  0
   15.5480   -3.3880   23.5030 C   0  0  0  0  0
   14.1980   -2.9730   22.9890 N   0  0  0  0  0
   13.5050   -3.9130   22.2230 C   0  0  0  0  0
   13.2070   -3.5350   20.9430 N   0  0  0  0  0
   12.5550   -4.3940   20.1250 C   0  0  0  0  0
   12.2560   -3.9550   18.8170 C   0  0  0  0  0
   11.5610   -4.8420   17.9650 C   0  0  0  0  0
   11.1710   -6.1440   18.4420 C   0  0  0  0  0
   11.4600   -6.5730   19.7630 C   0  0  0  0  0
   12.1680   -5.6880   20.6010 C   0  0  0  0  0
   12.4650   -6.0830   21.9130 C   0  0  0  0  0
   13.1460   -5.1830   22.7380 C   0  0  0  0  0
   13.4360   -5.6390   24.1580 C   0  0  0  0  0
   12.1780   -6.3350   24.5620 N   0  0  0  0  0
   11.9840   -7.5600   24.3800 N   0  0  0  0  0
   11.0990   -5.7410   25.1300 C   0  0  0  0  0
   10.8200   -4.4800   25.4920 N   0  0  0  0  0
    9.6270   -4.1940   26.0470 C   0  0  0  0  0
    8.6780   -5.1140   26.2540 N   0  0  0  0  0
    8.9360   -6.4040   25.9220 C   0  0  0  0  0
    7.9920   -7.3270   26.1190 N   0  0  0  0  0
   10.1530   -6.7320   25.3450 C   0  0  0  0  0
   10.7410   -7.8650   24.8440 C   0  0  0  0  0
   10.1560   -9.1140   24.8280 C   0  0  0  0  0
   10.5060   -9.9740   23.7860 C   0  0  0  0  0
    9.9620  -11.2320   23.7640 C   0  0  0  0  0
   10.1890  -12.5350   22.6460 S   0  0  0  0  0
    9.0890  -13.5920   23.4840 C   0  0  0  0  0
    8.8020  -14.8320   23.0870 N   0  0  0  0  0
    8.5860  -12.9680   24.5710 N   0  0  0  0  0
    9.0400  -11.6860   24.7540 C   0  0  0  0  0
    8.7000  -10.8100   25.7900 C   0  0  0  0  0
    9.2690   -9.5220   25.8250 C   0  0  0  0  0
   13.7634   -0.9960   22.2925 H   0  0  0  0  0
   12.4469   -1.7689   23.2466 H   0  0  0  0  0
   13.5875   -1.3074   25.3492 H   0  0  0  0  0
   13.7343    0.1679   24.4551 H   0  0  0  0  0
   15.9644   -0.4637   25.1560 H   0  0  0  0  0
   17.1259   -0.7118   23.0066 H   0  0  0  0  0
   15.5954   -1.2736   22.2902 H   0  0  0  0  0
   15.7498    0.4083   22.8545 H   0  0  0  0  0
   15.4450   -2.8671   25.6102 H   0  0  0  0  0
   17.0292   -2.5726   24.8679 H   0  0  0  0  0
   15.5051   -4.4311   23.8164 H   0  0  0  0  0
   16.2854   -3.2629   22.7101 H   0  0  0  0  0
   12.5520   -2.9632   18.4753 H   0  0  0  0  0
   11.3196   -4.5408   16.9456 H   0  0  0  0  0
   10.6395   -6.8178   17.7699 H   0  0  0  0  0
   11.1451   -7.5542   20.1181 H   0  0  0  0  0
   12.1724   -7.0666   22.2804 H   0  0  0  0  0
   13.6875   -4.8108   24.8205 H   0  0  0  0  0
   14.3108   -6.2864   24.2193 H   0  0  0  0  0
    9.4249   -3.1642   26.3416 H   0  0  0  0  0
    7.0909   -7.0586   26.5144 H   0  0  0  0  0
    8.1718   -8.3007   25.8742 H   0  0  0  0  0
   11.1969   -9.6523   23.0067 H   0  0  0  0  0
    9.2370  -15.2118   22.2462 H   0  0  0  0  0
    8.1475  -15.4008   23.6241 H   0  0  0  0  0
    7.9996  -11.1219   26.5648 H   0  0  0  0  0
    9.0148   -8.8396   26.6361 H   0  0  0  0  0
  1  2  1  0  0  0
  1  7  1  0  0  0
  2  3  1  0  0  0
  3  4  1  0  0  0
  3  5  1  0  0  0
  5  6  1  0  0  0
  6  7  1  0  0  0
  7  8  1  0  0  0
  8  9  4  0  0  0
  8 17  4  0  0  0
  9 10  4  0  0  0
 10 11  4  0  0  0
 10 15  4  0  0  0
 11 12  4  0  0  0
 12 13  4  0  0  0
 13 14  4  0  0  0
 14 15  4  0  0  0
 15 16  4  0  0  0
 16 17  4  0  0  0
 17 18  1  0  0  0
 18 19  1  0  0  0
 19 20  4  0  0  0
 19 21  4  0  0  0
 20 28  4  0  0  0
 21 22  4  0  0  0
 21 27  4  0  0  0
 22 23  4  0  0  0
 23 24  4  0  0  0
 24 25  4  0  0  0
 25 26  1  0  0  0
 25 27  4  0  0  0
 27 28  4  0  0  0
 28 29  1  0  0  0
 29 30  4  0  0  0
 29 38  4  0  0  0
 30 31  4  0  0  0
 31 32  4  0  0  0
 31 36  4  0  0  0
 32 33  4  0  0  0
 33 34  1  0  0  0
 33 35  4  0  0  0
 35 36  4  0  0  0
 36 37  4  0  0  0
 37 38  4  0  0  0
  1 39  1  0  0  0
  1 40  1  0  0  0
  2 41  1  0  0  0
  2 42  1  0  0  0
  3 43  1  0  0  0
  4 44  1  0  0  0
  4 45  1  0  0  0
  4 46  1  0  0  0
  5 47  1  0  0  0
  5 48  1  0  0  0
  6 49  1  0  0  0
  6 50  1  0  0  0
 11 51  1  0  0  0
 12 52  1  0  0  0
 13 53  1  0  0  0
 14 54  1  0  0  0
 16 55  1  0  0  0
 18 56  1  0  0  0
 18 57  1  0  0  0
 23 58  1  0  0  0
 26 59  1  0  0  0
 26 60  1  0  0  0
 30 61  1  0  0  0
 34 62  1  0  0  0
 34 63  1  0  0  0
 37 64  1  0  0  0
 38 65  1  0  0  0
M  END
$$$$
