### 
### Created by X-TOOL on Mon Sep 10 21:13:04 2018
### 

@<TRIPOS>MOLECULE
2wxk_ligand
   64    70     1     0     0
SMALL
GAST_HUCK


@<TRIPOS>ATOM
      1 CAA        13.5220   -1.6130   23.1580 C.3       1 RW4         0.0122
      2 CAB        14.0270   -0.8820   24.4470 C.3       1 RW4        -0.0924
      3 NAI        15.5460   -1.0440   24.4290 N.4       1 RW4         0.4035
      4 CAJ        16.0400   -0.6250   23.0450 C.3       1 RW4        -0.1255
      5 CAQ        15.9520   -2.5120   24.7130 C.3       1 RW4        -0.0924
      6 CAP        15.5480   -3.3880   23.5030 C.3       1 RW4         0.0122
      7 NAH        14.1980   -2.9730   22.9890 N.pl3     1 RW4        -0.2958
      8 CAG        13.5050   -3.9130   22.2230 C.ar      1 RW4         0.1216
      9 NAF        13.2070   -3.5350   20.9430 N.ar      1 RW4        -0.2946
     10 CAE        12.5550   -4.3940   20.1250 C.ar      1 RW4         0.0226
     11 CAD        12.2560   -3.9550   18.8170 C.ar      1 RW4        -0.0505
     12 CAC        11.5610   -4.8420   17.9650 C.ar      1 RW4        -0.0635
     13 CAK        11.1710   -6.1440   18.4420 C.ar      1 RW4        -0.0632
     14 CAL        11.4600   -6.5730   19.7630 C.ar      1 RW4        -0.0557
     15 CAM        12.1680   -5.6880   20.6010 C.ar      1 RW4        -0.0114
     16 CAN        12.4650   -6.0830   21.9130 C.ar      1 RW4        -0.0376
     17 CAO        13.1460   -5.1830   22.7380 C.ar      1 RW4         0.0419
     18 CAR        13.4360   -5.6390   24.1580 C.3       1 RW4         0.1088
     19 NAV        12.1780   -6.3350   24.5620 N.pl3     1 RW4        -0.1733
     20 NBA        11.9840   -7.5600   24.3800 N.2       1 RW4        -0.1951
     21 C6         11.0990   -5.7410   25.1300 C.ar      1 RW4         0.1647
     22 N1         10.8200   -4.4800   25.4920 N.ar      1 RW4        -0.2675
     23 C2          9.6270   -4.1940   26.0470 C.ar      1 RW4         0.0565
     24 N3          8.6780   -5.1140   26.2540 N.ar      1 RW4        -0.2657
     25 C4          8.9360   -6.4040   25.9220 C.ar      1 RW4         0.1273
     26 NAZ         7.9920   -7.3270   26.1190 N.pl3     1 RW4        -0.3126
     27 C5         10.1530   -6.7320   25.3450 C.ar      1 RW4         0.0861
     28 CBB        10.7410   -7.8650   24.8440 C.2       1 RW4         0.0662
     29 CBD        10.1560   -9.1140   24.8280 C.ar      1 RW4        -0.0198
     30 CBC        10.5060   -9.9740   23.7860 C.ar      1 RW4        -0.0447
     31 CBF         9.9620  -11.2320   23.7640 C.ar      1 RW4         0.0503
     32 SBI        10.1890  -12.5350   22.6460 S.3       1 RW4         0.0287
     33 CBK         9.0890  -13.5920   23.4840 C.2       1 RW4         0.1834
     34 NBJ         8.8020  -14.8320   23.0870 N.pl3     1 RW4        -0.2931
     35 NBL         8.5860  -12.9680   24.5710 N.2       1 RW4        -0.3062
     36 CBG         9.0400  -11.6860   24.7540 C.ar      1 RW4         0.0116
     37 CBH         8.7000  -10.8100   25.7900 C.ar      1 RW4        -0.0620
     38 CBE         9.2690   -9.5220   25.8250 C.ar      1 RW4        -0.0668
     39 H          13.7634   -0.9960   22.2925 H         1 RW4         0.0502
     40 H          12.4469   -1.7689   23.2466 H         1 RW4         0.0502
     41 H          13.5875   -1.3074   25.3492 H         1 RW4         0.0037
     42 H          13.7343    0.1679   24.4551 H         1 RW4         0.0037
     43 H          17.1259   -0.7118   23.0066 H         1 RW4        -0.0019
     44 H          15.5954   -1.2736   22.2902 H         1 RW4        -0.0019
     45 H          15.7498    0.4083   22.8545 H         1 RW4        -0.0019
     46 H          15.4450   -2.8671   25.6102 H         1 RW4         0.0037
     47 H          17.0292   -2.5726   24.8679 H         1 RW4         0.0037
     48 H          15.5051   -4.4311   23.8164 H         1 RW4         0.0502
     49 H          16.2854   -3.2629   22.7101 H         1 RW4         0.0502
     50 H          12.5520   -2.9632   18.4753 H         1 RW4         0.0597
     51 H          11.3196   -4.5408   16.9456 H         1 RW4         0.0617
     52 H          10.6395   -6.8178   17.7699 H         1 RW4         0.0596
     53 H          11.1451   -7.5542   20.1181 H         1 RW4         0.0621
     54 H          12.1724   -7.0666   22.2804 H         1 RW4         0.0652
     55 H          13.6875   -4.8108   24.8205 H         1 RW4         0.0786
     56 H          14.3108   -6.2864   24.2193 H         1 RW4         0.0786
     57 H           9.4249   -3.1642   26.3416 H         1 RW4         0.1030
     58 H           8.1594   -8.2947   25.8433 H         1 RW4         0.1842
     59 H           7.1032   -7.0646   26.5452 H         1 RW4         0.1842
     60 H          11.1969   -9.6523   23.0067 H         1 RW4         0.0560
     61 H           8.1464  -15.4003   23.6233 H         1 RW4         0.1898
     62 H           9.2381  -15.2124   22.2470 H         1 RW4         0.1898
     63 H           7.9996  -11.1219   26.5648 H         1 RW4         0.0540
     64 H           9.0148   -8.8396   26.6361 H         1 RW4         0.0553
@<TRIPOS>BOND
     1    1    2 1  
     2    1    7 1  
     3    2    3 1  
     4    3    4 1  
     5    3    5 1  
     6    5    6 1  
     7    6    7 1  
     8    7    8 1  
     9    8    9 ar 
    10    8   17 ar 
    11    9   10 ar 
    12   10   11 ar 
    13   10   15 ar 
    14   11   12 ar 
    15   12   13 ar 
    16   13   14 ar 
    17   14   15 ar 
    18   15   16 ar 
    19   16   17 ar 
    20   17   18 1  
    21   18   19 1  
    22   19   20 1  
    23   19   21 1  
    24   20   28 2  
    25   21   22 ar 
    26   21   27 ar 
    27   22   23 ar 
    28   23   24 ar 
    29   24   25 ar 
    30   25   26 1  
    31   25   27 ar 
    32   27   28 1  
    33   28   29 1  
    34   29   30 ar 
    35   29   38 ar 
    36   30   31 ar 
    37   31   32 1  
    38   31   36 ar 
    39   32   33 1  
    40   33   34 1  
    41   33   35 2  
    42   35   36 1  
    43   36   37 ar 
    44   37   38 ar 
    45    1   39 1  
    46    1   40 1  
    47    2   41 1  
    48    2   42 1  
    49    4   43 1  
    50    4   44 1  
    51    4   45 1  
    52    5   46 1  
    53    5   47 1  
    54    6   48 1  
    55    6   49 1  
    56   11   50 1  
    57   12   51 1  
    58   13   52 1  
    59   14   53 1  
    60   16   54 1  
    61   18   55 1  
    62   18   56 1  
    63   23   57 1  
    64   26   58 1  
    65   26   59 1  
    66   30   60 1  
    67   34   61 1  
    68   34   62 1  
    69   37   63 1  
    70   38   64 1  
@<TRIPOS>SUBSTRUCTURE
     1 RW4         1

