4jyu_ligand
  -I-interpret- 

 68 71  0  0  0  0  0  0  0  0999 V2000
    9.4140   33.7690   28.6870 C   0  0  0  0  0
    9.5970   33.3860   27.3270 C   0  0  0  0  0
    9.2020   34.1950   26.3030 C   0  0  0  0  0
    8.5830   35.4190   26.5570 C   0  0  0  0  0
    8.3870   35.8370   27.8580 C   0  0  0  0  0
    7.3350   37.3890   25.7060 C   0  0  0  0  0
    5.8600   37.0720   25.9150 C   0  0  0  0  0
    7.3550   38.2210   24.4690 C   0  0  0  0  0
    5.1750   36.3120   24.9660 C   0  0  0  0  0
    8.6550   35.4570   30.2890 C   0  0  0  0  0
    8.7990   35.0320   28.9480 C   0  0  0  0  0
   -0.4390   36.4350   27.0370 C   0  0  0  0  0
    3.8140   37.3490   27.1740 C   0  0  0  0  0
    0.9740   36.5580   27.4940 C   0  0  0  0  0
    6.9920   39.5190   24.6590 N   0  0  0  0  0
    6.7880   40.5710   23.4320 S   0  0  0  0  0
    5.4640   39.8680   22.4970 C   0  0  0  0  0
    4.4300   39.2160   23.1610 C   0  0  0  0  0
    3.4110   38.6340   22.4210 C   0  0  0  0  0
    3.4130   38.7160   21.0400 C   0  0  0  0  0
    4.4330   39.3830   20.3910 C   0  0  0  0  0
    5.4710   39.9610   21.1120 C   0  0  0  0  0
    9.6950   33.4620   31.0860 N   0  0  0  0  0
    9.1200   34.6580   31.2890 C   0  0  0  0  0
    9.8430   33.0020   29.8400 C   0  0  0  0  0
   10.4320   31.7970   29.6820 N   0  0  0  0  0
    8.1420   36.1990   25.4890 N   0  0  0  0  0
    3.8220   36.0530   25.1180 C   0  0  0  0  0
    3.1260   36.5830   26.2340 C   0  0  0  0  0
    5.1700   37.5760   27.0110 C   0  0  0  0  0
    1.7840   36.2660   26.3060 O   0  0  0  0  0
    3.0950   35.2120   24.3060 O   0  0  0  0  0
    3.7410   34.5900   23.1770 C   0  0  0  0  0
    2.7630   33.7310   22.5170 C   0  0  0  0  0
    1.2940   35.6270   28.6210 C   0  0  0  0  0
    7.6950   37.7830   23.3730 O   0  0  0  0  0
    6.3120   41.7820   24.0350 O   0  0  0  0  0
    7.9670   40.5990   22.6190 O   0  0  0  0  0
   10.0623   32.4267   27.1005 H   0  0  0  0  0
    9.3720   33.8814   25.2730 H   0  0  0  0  0
    7.9094   36.7981   28.0486 H   0  0  0  0  0
    7.7530   37.8785   26.5856 H   0  0  0  0  0
    5.7075   35.9196   24.0997 H   0  0  0  0  0
    8.1788   36.4101   30.5189 H   0  0  0  0  0
   -0.6244   37.1516   26.2369 H   0  0  0  0  0
   -0.6137   35.4241   26.6688 H   0  0  0  0  0
   -1.1088   36.6397   27.8722 H   0  0  0  0  0
    3.2875   37.7667   28.0321 H   0  0  0  0  0
    1.1745   37.5521   27.8936 H   0  0  0  0  0
    6.8409   39.8478   25.6126 H   0  0  0  0  0
    4.4205   39.1630   24.2497 H   0  0  0  0  0
    2.6035   38.1087   22.9310 H   0  0  0  0  0
    2.6102   38.2546   20.4649 H   0  0  0  0  0
    4.4240   39.4569   19.3035 H   0  0  0  0  0
    6.2794   40.4801   20.5971 H   0  0  0  0  0
    9.0193   35.0106   32.3155 H   0  0  0  0  0
   10.5782   31.4196   28.7457 H   0  0  0  0  0
   10.7307   31.2643   30.4989 H   0  0  0  0  0
    8.3902   35.9298   24.5370 H   0  0  0  0  0
    5.7070   38.1617   27.7571 H   0  0  0  0  0
    4.5966   34.0019   23.5088 H   0  0  0  0  0
    4.1042   35.3495   22.4846 H   0  0  0  0  0
    2.4156   32.9725   23.2184 H   0  0  0  0  0
    1.9181   34.3338   22.1838 H   0  0  0  0  0
    3.2274   33.2475   21.6575 H   0  0  0  0  0
    0.6456   35.8484   29.4687 H   0  0  0  0  0
    1.1331   34.5985   28.2978 H   0  0  0  0  0
    2.3355   35.7583   28.9145 H   0  0  0  0  0
  2  1  4  0  0  0
 11  1  4  0  0  0
  1 25  4  0  0  0
  3  2  4  0  0  0
  4  3  4  0  0  0
  4  5  4  0  0  0
 27  4  1  0  0  0
  5 11  4  0  0  0
  7  6  1  0  0  0
  6  8  1  0  0  0
  6 27  1  0  0  0
  9  7  4  0  0  0
 30  7  4  0  0  0
  8 15  1  0  0  0
  8 36  2  0  0  0
 28  9  4  0  0  0
 11 10  4  0  0  0
 10 24  4  0  0  0
 14 12  1  0  0  0
 29 13  4  0  0  0
 13 30  4  0  0  0
 31 14  1  0  0  0
 14 35  1  0  0  0
 15 16  1  0  0  0
 16 17  1  0  0  0
 16 37  2  0  0  0
 16 38  2  0  0  0
 17 18  4  0  0  0
 17 22  4  0  0  0
 18 19  4  0  0  0
 19 20  4  0  0  0
 21 20  4  0  0  0
 22 21  4  0  0  0
 24 23  4  0  0  0
 25 23  4  0  0  0
 25 26  1  0  0  0
 29 28  4  0  0  0
 28 32  1  0  0  0
 29 31  1  0  0  0
 32 33  1  0  0  0
 33 34  1  0  0  0
  2 39  1  0  0  0
  3 40  1  0  0  0
  5 41  1  0  0  0
  6 42  1  0  0  0
  9 43  1  0  0  0
 10 44  1  0  0  0
 12 45  1  0  0  0
 12 46  1  0  0  0
 12 47  1  0  0  0
 13 48  1  0  0  0
 14 49  1  0  0  0
 15 50  1  0  0  0
 18 51  1  0  0  0
 19 52  1  0  0  0
 20 53  1  0  0  0
 21 54  1  0  0  0
 22 55  1  0  0  0
 24 56  1  0  0  0
 26 57  1  0  0  0
 26 58  1  0  0  0
 27 59  1  0  0  0
 30 60  1  0  0  0
 33 61  1  0  0  0
 33 62  1  0  0  0
 34 63  1  0  0  0
 34 64  1  0  0  0
 34 65  1  0  0  0
 35 66  1  0  0  0
 35 67  1  0  0  0
 35 68  1  0  0  0
M  END
$$$$
