3daz_ligand
  -I-interpret- 

 23 23  0  0  0  0  0  0  0  0999 V2000
   -5.5550   -0.4510   16.4680 N   0  0  0  0  0
   -6.0000    0.5600   16.8090 S   0  0  0  0  0
   -7.1860    0.6660   16.6850 O   0  0  0  0  0
   -5.5980    0.6550   17.8500 O   0  0  0  0  0
   -5.1700    1.7910   15.9800 C   0  0  0  0  0
   -6.1000    2.9520   15.1060 S   0  0  0  0  0
   -4.6230    3.6330   14.5910 C   0  0  0  0  0
   -3.5950    3.0800   15.0830 N   0  3  0  0  0
   -2.2030    3.5200   14.8140 C   0  0  0  0  0
   -3.8850    1.9760   15.8510 N   0  0  0  0  0
   -4.7950    4.7370   13.7670 N   0  0  0  0  0
   -5.6410    5.4330   13.2030 C   0  0  0  0  0
   -5.5900    6.4180   12.4610 O   0  0  0  0  0
   -6.8890    4.9640   13.5470 C   0  0  0  0  0
   -6.1659   -1.1765   16.0928 H   0  0  0  0  0
   -4.5514   -0.6175   16.5423 H   0  0  0  0  0
   -2.0019    3.4518   13.7449 H   0  0  0  0  0
   -2.0794    4.5517   15.1431 H   0  0  0  0  0
   -1.5091    2.8784   15.3572 H   0  0  0  0  0
   -3.8737    5.1141   13.5447 H   0  0  0  0  0
   -7.4397    5.7479   14.0670 H   0  0  0  0  0
   -7.4289    4.6761   12.6449 H   0  0  0  0  0
   -6.7829    4.0981   14.2005 H   0  0  0  0  0
  1  2  1  0  0  0
  2  3  2  0  0  0
  2  4  2  0  0  0
  2  5  1  0  0  0
  5  6  4  0  0  0
  5 10  4  0  0  0
  6  7  4  0  0  0
  7  8  4  0  0  0
  7 11  1  0  0  0
  8  9  1  0  0  0
  8 10  4  0  0  0
 11 12  1  0  0  0
 12 13  2  0  0  0
 12 14  1  0  0  0
  1 15  1  0  0  0
  1 16  1  0  0  0
  9 17  1  0  0  0
  9 18  1  0  0  0
  9 19  1  0  0  0
 11 20  1  0  0  0
 14 21  1  0  0  0
 14 22  1  0  0  0
 14 23  1  0  0  0
M  END
$$$$
