2w73_ligand
  -I-interpret- 

295295  0  0  0  0  0  0  0  0999 V2000
   -4.2550  -22.1130   26.5560 N   0  3  0  0  0
   -4.6970  -20.7760   26.2480 C   0  0  0  0  0
   -4.5810  -20.0070   27.5200 C   0  0  0  0  0
   -4.8570  -18.8150   27.5880 O   0  0  0  0  0
   -6.1500  -20.7130   25.7500 C   0  0  0  0  0
   -6.3850  -21.7760   24.6760 C   0  0  0  0  0
   -7.1470  -20.8450   26.9110 C   0  0  0  0  0
   -4.1610  -20.7500   28.5290 N   0  0  0  0  0
   -3.9470  -20.1760   29.8780 C   0  0  0  0  0
   -2.9720  -19.0280   29.7890 C   0  0  0  0  0
   -3.1790  -17.9780   30.4160 O   0  0  0  0  0
   -3.4600  -21.1820   30.9330 C   0  0  0  0  0
   -3.5420  -20.5310   32.3150 C   0  0  0  0  0
   -2.0700  -21.7180   30.6070 C   0  0  0  0  0
   -4.9740  -20.1410   32.6880 C   0  0  0  0  0
   -1.9200  -19.2140   29.0110 N   0  0  0  0  0
   -0.8800  -18.2080   28.9190 C   0  0  0  0  0
   -1.4170  -16.9450   28.2530 C   0  0  0  0  0
   -1.0050  -15.8510   28.5760 O   0  0  0  0  0
    0.3710  -18.6700   28.3050 C   0  0  0  0  0
    1.0270  -19.6660   29.2720 C   0  0  0  0  0
    2.4300  -19.8330   28.9190 C   0  0  0  0  0
    2.5370  -20.5550   27.6690 N   0  0  0  0  0
    3.6750  -20.7950   27.0400 C   0  0  0  0  0
    3.6560  -21.4720   25.8970 N   0  0  0  0  0
    4.8280  -20.3630   27.5460 N   0  0  0  0  0
   -2.3290  -17.0960   27.3260 N   0  0  0  0  0
   -2.9390  -15.9090   26.6410 C   0  0  0  0  0
   -3.7270  -15.0630   27.6070 C   0  0  0  0  0
   -3.7400  -13.8130   27.5660 O   0  0  0  0  0
   -3.8450  -16.3810   25.4900 C   0  0  0  0  0
   -3.0640  -16.8030   24.2520 C   0  0  0  0  0
   -1.8930  -16.4750   24.1080 O   0  0  0  0  0
   -3.7120  -17.5310   23.3560 N   0  0  0  0  0
   -4.4220  -15.7570   28.4730 N   0  0  0  0  0
   -5.1980  -15.1500   29.5560 C   0  0  0  0  0
   -4.3070  -14.4360   30.5510 C   0  0  0  0  0
   -4.5990  -13.3100   30.9790 O   0  0  0  0  0
   -6.0790  -16.1250   30.2690 C   0  0  0  0  0
   -7.0170  -15.5080   31.2270 C   0  0  0  0  0
   -8.3420  -16.2510   31.2580 C   0  0  0  0  0
   -9.1950  -15.8270   32.4570 C   0  0  0  0  0
  -10.6070  -16.2820   32.3920 N   0  3  0  0  0
   -3.2050  -15.0230   30.9310 N   0  0  0  0  0
   -2.2480  -14.4250   31.8360 C   0  0  0  0  0
   -1.6720  -13.1420   31.2450 C   0  0  0  0  0
   -1.5270  -12.0970   31.9480 O   0  0  0  0  0
   -1.1220  -15.3860   32.2510 C   0  0  0  0  0
   -1.7580  -16.4760   33.1120 C   0  0  0  0  0
   -0.0420  -14.7110   33.0630 C   0  0  0  0  0
   -0.7710  -17.5720   33.5330 C   0  0  0  0  0
   -1.3510  -13.1720   29.9830 N   0  0  0  0  0
   -0.8530  -11.9920   29.2550 C   0  0  0  0  0
   -1.8970  -10.8870   29.2680 C   0  0  0  0  0
   -1.5600   -9.6950   29.4580 O   0  0  0  0  0
   -0.4260  -12.3150   27.8320 C   0  0  0  0  0
    0.9030  -13.0830   27.7670 C   0  0  0  0  0
    1.6590  -12.9750   26.4420 C   0  0  0  0  0
    2.9120  -13.7310   26.5120 N   0  0  0  0  0
    4.0880  -13.2220   26.8700 C   0  0  0  0  0
    5.1460  -14.0010   26.9040 N   0  0  0  0  0
    4.2060  -11.9320   27.1940 N   0  0  0  0  0
   -3.1460  -11.2630   29.0590 N   0  0  0  0  0
   -4.2740  -10.2820   29.0990 C   0  0  0  0  0
   -4.3940   -9.6750   30.4570 C   0  0  0  0  0
   -4.6440   -8.4140   30.6380 O   0  0  0  0  0
   -5.6070  -10.8930   28.6260 C   0  0  0  0  0
   -4.2140  -10.4170   31.4810 N   0  0  0  0  0
   -4.3090   -9.9780   32.8370 C   0  0  0  0  0
   -3.2430   -8.9310   33.0690 C   0  0  0  0  0
   -3.4870   -7.8540   33.6730 O   0  0  0  0  0
   -4.1380  -11.2090   33.8560 C   0  0  0  0  0
   -5.4140  -12.0290   33.8280 C   0  0  0  0  0
   -3.7550  -10.7120   35.2320 C   0  0  0  0  0
   -5.2980  -13.4170   34.5010 C   0  0  0  0  0
   -2.0460   -9.2240   32.6220 N   0  0  0  0  0
   -0.9050   -8.3300   32.7640 C   0  0  0  0  0
   -1.1430   -7.0140   32.0110 C   0  0  0  0  0
   -0.7900   -5.9570   32.5320 O   0  0  0  0  0
   -1.6870   -7.1380   30.8500 N   0  0  0  0  0
   -1.9990   -5.9290   29.9900 C   0  0  0  0  0
   -3.0040   -5.0710   30.6970 C   0  0  0  0  0
   -2.8500   -3.8130   30.7650 O   0  0  0  0  0
   -2.5500   -6.3660   28.6750 C   0  0  0  0  0
   -1.5670   -7.0010   27.8060 C   0  0  0  0  0
   -2.2320   -7.4410   26.5110 C   0  0  0  0  0
   -1.3860   -8.4270   25.7960 C   0  0  0  0  0
   -0.5130   -7.7360   24.8200 N   0  3  0  0  0
   -4.0220   -5.6620   31.2310 N   0  0  0  0  0
   -5.0950   -4.9250   31.9230 C   0  0  0  0  0
   -4.5740   -4.3120   33.1850 C   0  0  0  0  0
   -4.9610   -3.1770   33.5900 O   0  0  0  0  0
   -6.3300   -5.7760   32.2290 C   0  0  0  0  0
   -7.0610   -6.2590   31.0130 C   0  0  0  0  0
   -7.6130   -4.9450   29.9020 S   0  0  0  0  0
   -6.3860   -4.8380   28.6450 C   0  0  0  0  0
   -3.6880   -5.0070   33.8880 N   0  0  0  0  0
   -3.1290   -4.4890   35.1110 C   0  0  0  0  0
   -2.3960   -3.1590   34.8150 C   0  0  0  0  0
   -2.4440   -2.2060   35.5670 O   0  0  0  0  0
   -2.1990   -5.4990   35.8480 C   0  0  0  0  0
   -1.7230   -3.1560   33.6890 N   0  0  0  0  0
   -0.8880   -2.0230   33.2830 C   0  0  0  0  0
   -1.7880   -0.8100   33.0260 C   0  0  0  0  0
   -1.5070    0.2850   33.4770 O   0  0  0  0  0
   -0.0030   -2.3340   32.0630 C   0  0  0  0  0
    0.8420   -1.1440   31.6250 C   0  0  0  0  0
    1.6930   -1.4790   30.4210 C   0  0  0  0  0
    1.8090   -0.2950   29.5830 N   0  0  0  0  0
    2.5550    0.7620   29.8870 C   0  0  0  0  0
    2.5890    1.7890   29.0600 N   0  0  0  0  0
    3.2670    0.7930   31.0090 N   0  0  0  0  0
   -2.8790   -1.0290   32.3180 N   0  0  0  0  0
   -3.7200    0.0870   31.8530 C   0  0  0  0  0
   -4.7440    0.5430   32.8440 C   0  0  0  0  0
   -5.1800    1.7320   32.8080 O   0  0  0  0  0
   -4.2890   -0.1670   30.5220 C   0  0  0  0  0
   -3.2210   -0.4690   29.4970 C   0  0  0  0  0
   -5.3100   -1.1160   30.5700 C   0  0  0  0  0
   -5.1430   -0.3270   33.7460 N   0  0  0  0  0
   -6.0180    0.0910   34.8900 C   0  0  0  0  0
   -5.3340    0.4860   36.1550 C   0  0  0  0  0
   -5.8280    1.3190   36.9120 O   0  0  0  0  0
   -7.0260   -0.9470   35.3070 C   0  0  0  0  0
   -8.1730   -1.0060   34.4300 C   0  0  0  0  0
   -9.2550   -0.1360   34.5780 C   0  0  0  0  0
   -8.1840   -1.8940   33.4210 C   0  0  0  0  0
  -10.3290   -0.2080   33.7290 C   0  0  0  0  0
   -9.2100   -1.9750   32.5900 C   0  0  0  0  0
  -10.3190   -1.1310   32.7110 C   0  0  0  0  0
   -4.2000   -0.0980   36.4000 N   0  0  0  0  0
   -3.5370    0.1010   37.6940 C   0  0  0  0  0
   -2.0510    0.4310   37.5630 C   0  0  0  0  0
   -1.5560    0.6640   36.4610 O   0  0  0  0  0
   -3.7570   -1.1350   38.5750 C   0  0  0  0  0
   -3.2060   -2.2870   37.9660 O   0  0  0  0  0
   -1.2930    0.4850   38.5420 O   0  0  0  0  0
   -4.3124  -22.6905   25.7172 H   0  0  0  0  0
   -3.2898  -22.0835   26.8846 H   0  0  0  0  0
   -4.8511  -22.5078   27.2834 H   0  0  0  0  0
   -4.0869  -20.3726   25.4398 H   0  0  0  0  0
   -6.3195  -19.7345   25.3006 H   0  0  0  0  0
   -6.2699  -22.7667   25.1158 H   0  0  0  0  0
   -7.3933  -21.6696   24.2758 H   0  0  0  0  0
   -5.6587  -21.6467   23.8736 H   0  0  0  0  0
   -8.1622  -20.7301   26.5312 H   0  0  0  0  0
   -7.0388  -21.8271   27.3712 H   0  0  0  0  0
   -6.9449  -20.0711   27.6515 H   0  0  0  0  0
   -3.9799  -21.7420   28.3754 H   0  0  0  0  0
   -4.9268  -19.8396   30.2168 H   0  0  0  0  0
   -4.1098  -22.0571   30.9292 H   0  0  0  0  0
   -2.9375  -19.6241   32.2985 H   0  0  0  0  0
   -3.1849  -21.2518   33.0505 H   0  0  0  0  0
   -2.0933  -22.2203   29.6399 H   0  0  0  0  0
   -1.3620  -20.8900   30.5708 H   0  0  0  0  0
   -1.7647  -22.4254   31.3780 H   0  0  0  0  0
   -5.3582  -19.4308   31.9558 H   0  0  0  0  0
   -5.6016  -21.0322   32.6957 H   0  0  0  0  0
   -4.9786  -19.6832   33.6772 H   0  0  0  0  0
   -1.8388  -20.0745   28.4694 H   0  0  0  0  0
   -0.5982  -17.9737   29.9455 H   0  0  0  0  0
    1.0365  -17.8267   28.1205 H   0  0  0  0  0
    0.1686  -19.1492   27.3472 H   0  0  0  0  0
    0.5182  -20.6275   29.2037 H   0  0  0  0  0
    0.9514  -19.2865   30.2910 H   0  0  0  0  0
    2.9355  -20.3946   29.7046 H   0  0  0  0  0
    2.8940  -18.8527   28.8105 H   0  0  0  0  0
    1.6767  -20.9020   27.2449 H   0  0  0  0  0
    2.7698  -21.8007   25.5136 H   0  0  0  0  0
    5.7025  -20.5513   27.0559 H   0  0  0  0  0
    4.8370  -19.8437   28.4239 H   0  0  0  0  0
   -2.6294  -18.0353   27.0655 H   0  0  0  0  0
   -2.1322  -15.2952   26.2406 H   0  0  0  0  0
   -4.4868  -15.5460   25.2089 H   0  0  0  0  0
   -4.4037  -17.2483   25.8416 H   0  0  0  0  0
   -3.2356  -17.8394   22.5085 H   0  0  0  0  0
   -4.6877  -17.7835   23.5132 H   0  0  0  0  0
   -4.4228  -16.7735   28.3887 H   0  0  0  0  0
   -5.8469  -14.4198   29.0725 H   0  0  0  0  0
   -5.4282  -16.7880   30.8391 H   0  0  0  0  0
   -6.6794  -16.6285   29.5113 H   0  0  0  0  0
   -7.2029  -14.4795   30.9174 H   0  0  0  0  0
   -6.5733  -15.5478   32.2218 H   0  0  0  0  0
   -8.1375  -17.3185   31.3399 H   0  0  0  0  0
   -8.8899  -16.0183   30.3449 H   0  0  0  0  0
   -9.2090  -14.7372   32.4719 H   0  0  0  0  0
   -8.7517  -16.2810   33.3432 H   0  0  0  0  0
  -11.1050  -15.9609   33.2223 H   0  0  0  0  0
  -11.0494  -15.8957   31.5581 H   0  0  0  0  0
  -10.6331  -17.3008   32.3512 H   0  0  0  0  0
   -3.0074  -15.9561   30.5694 H   0  0  0  0  0
   -2.7971  -14.1832   32.7460 H   0  0  0  0  0
   -0.6511  -15.7753   31.3483 H   0  0  0  0  0
   -2.5409  -16.9486   32.5188 H   0  0  0  0  0
   -2.1303  -16.0022   34.0203 H   0  0  0  0  0
    0.4050  -13.9091   32.4754 H   0  0  0  0  0
   -0.4779  -14.2972   33.9723 H   0  0  0  0  0
    0.7236  -15.4412   33.3252 H   0  0  0  0  0
   -0.3626  -18.0525   32.6439 H   0  0  0  0  0
    0.0387  -17.1273   34.1116 H   0  0  0  0  0
   -1.2901  -18.3124   34.1417 H   0  0  0  0  0
   -1.4488  -14.0517   29.4762 H   0  0  0  0  0
    0.0407  -11.6478   29.7755 H   0  0  0  0  0
   -0.2920  -11.3719   27.3022 H   0  0  0  0  0
   -1.1968  -12.9448   27.3877 H   0  0  0  0  0
    0.6602  -14.1370   27.9018 H   0  0  0  0  0
    1.5498  -12.6508   28.5305 H   0  0  0  0  0
    1.8848  -11.9272   26.2442 H   0  0  0  0  0
    1.0398  -13.3834   25.6433 H   0  0  0  0  0
    2.8805  -14.7209   26.2682 H   0  0  0  0  0
    5.0614  -14.9871   26.6571 H   0  0  0  0  0
    5.1141  -11.5555   27.4662 H   0  0  0  0  0
    3.3881  -11.3231   27.1693 H   0  0  0  0  0
   -3.3455  -12.2445   28.8660 H   0  0  0  0  0
   -4.0388   -9.4879   28.3904 H   0  0  0  0  0
   -5.5014  -11.2410   27.5985 H   0  0  0  0  0
   -5.8693  -11.7323   29.2701 H   0  0  0  0  0
   -6.3900  -10.1364   28.6760 H   0  0  0  0  0
   -3.9850  -11.3975   31.3181 H   0  0  0  0  0
   -5.2950   -9.5503   33.0187 H   0  0  0  0  0
   -3.3197  -11.8620   33.5526 H   0  0  0  0  0
   -5.6599  -12.2016   32.7802 H   0  0  0  0  0
   -6.1667  -11.4676   34.3815 H   0  0  0  0  0
   -2.8116  -10.1694   35.1714 H   0  0  0  0  0
   -4.5340  -10.0481   35.6069 H   0  0  0  0  0
   -3.6444  -11.5615   35.9060 H   0  0  0  0  0
   -4.5321  -14.0029   33.9928 H   0  0  0  0  0
   -5.0246  -13.2898   35.5484 H   0  0  0  0  0
   -6.2559  -13.9329   34.4343 H   0  0  0  0  0
   -1.9073  -10.1192   32.1532 H   0  0  0  0  0
   -0.0237   -8.8177   32.3474 H   0  0  0  0  0
   -0.7634   -8.1079   33.8217 H   0  0  0  0  0
   -1.9128   -8.0697   30.5017 H   0  0  0  0  0
   -1.0846   -5.3613   29.8177 H   0  0  0  0  0
   -2.9098   -5.4745   28.1613 H   0  0  0  0  0
   -3.3281   -7.1021   28.8774 H   0  0  0  0  0
   -1.1493   -7.8722   28.3107 H   0  0  0  0  0
   -0.7730   -6.2893   27.5797 H   0  0  0  0  0
   -2.3722   -6.5686   25.8728 H   0  0  0  0  0
   -3.1902   -7.9041   26.7466 H   0  0  0  0  0
   -2.0276   -9.1310   25.2661 H   0  0  0  0  0
   -0.7653   -8.9564   26.5189 H   0  0  0  0  0
    0.0635   -8.4236   24.3349 H   0  0  0  0  0
   -1.0902   -7.2365   24.1434 H   0  0  0  0  0
    0.0870   -7.0736   25.3116 H   0  0  0  0  0
   -4.0854   -6.6783   31.1713 H   0  0  0  0  0
   -5.4191   -4.1467   31.2321 H   0  0  0  0  0
   -7.0214   -5.1484   32.7913 H   0  0  0  0  0
   -5.9864   -6.6583   32.7689 H   0  0  0  0  0
   -7.9534   -6.7786   31.3619 H   0  0  0  0  0
   -6.3672   -6.8833   30.4499 H   0  0  0  0  0
   -5.4241   -4.5973   29.0976 H   0  0  0  0  0
   -6.3156   -5.7937   28.1255 H   0  0  0  0  0
   -6.6611   -4.0571   27.9361 H   0  0  0  0  0
   -3.3970   -5.9264   33.5557 H   0  0  0  0  0
   -3.9560   -4.3097   35.7980 H   0  0  0  0  0
   -2.7662   -6.3945   36.1020 H   0  0  0  0  0
   -1.3671   -5.7668   35.1967 H   0  0  0  0  0
   -1.8155   -5.0397   36.7591 H   0  0  0  0  0
   -1.7831   -3.9692   33.0762 H   0  0  0  0  0
   -0.1953   -1.8043   34.0957 H   0  0  0  0  0
   -0.6595   -2.5993   31.2343 H   0  0  0  0  0
    0.6759   -3.1402   32.3409 H   0  0  0  0  0
    1.5021   -0.8689   32.4476 H   0  0  0  0  0
    0.1728   -0.3264   31.3571 H   0  0  0  0  0
    1.2298   -2.2874   29.8553 H   0  0  0  0  0
    2.6828   -1.7990   30.7464 H   0  0  0  0  0
    1.2852   -0.2751   28.7080 H   0  0  0  0  0
    2.0460    1.7669   28.1968 H   0  0  0  0  0
    3.8376    1.6094   31.2285 H   0  0  0  0  0
    3.2427    0.0003   31.6505 H   0  0  0  0  0
   -3.1446   -1.9868   32.0888 H   0  0  0  0  0
   -3.0420    0.9348   31.7549 H   0  0  0  0  0
   -4.7607    0.7547   30.1812 H   0  0  0  0  0
   -2.5419    0.3802   29.4207 H   0  0  0  0  0
   -2.6645   -1.3545   29.8041 H   0  0  0  0  0
   -3.6888   -0.6499   28.5292 H   0  0  0  0  0
   -4.9144   -2.0541   30.9594 H   0  0  0  0  0
   -6.1069   -0.7578   31.2218 H   0  0  0  0  0
   -5.7039   -1.2751   29.5662 H   0  0  0  0  0
   -4.8527   -1.3016   33.6662 H   0  0  0  0  0
   -6.4825    0.9675   34.4383 H   0  0  0  0  0
   -7.3827   -0.6819   36.3023 H   0  0  0  0  0
   -6.5337   -1.9190   35.2751 H   0  0  0  0  0
   -9.2457    0.6069   35.3755 H   0  0  0  0  0
   -7.3317   -2.5597   33.2850 H   0  0  0  0  0
  -11.1810    0.4592   33.8599 H   0  0  0  0  0
   -9.1908   -2.7171   31.7919 H   0  0  0  0  0
  -11.1546   -1.2037   32.0149 H   0  0  0  0  0
   -3.7704   -0.6948   35.6931 H   0  0  0  0  0
   -3.9904    0.9725   38.1662 H   0  0  0  0  0
   -4.8281   -1.2856   38.7100 H   0  0  0  0  0
   -3.2668   -0.9752   39.5354 H   0  0  0  0  0
   -3.3537   -3.0484   38.5318 H   0  0  0  0  0
   -1.7882    0.2865   39.3401 H   0  0  0  0  0
  2  1  1  0  0  0
  2  5  1  0  0  0
  2  3  1  0  0  0
  3  4  2  0  0  0
  5  7  1  0  0  0
  5  6  1  0  0  0
  9  8  1  0  0  0
  9 12  1  0  0  0
  9 10  1  0  0  0
 10 11  2  0  0  0
 12 14  1  0  0  0
 12 13  1  0  0  0
 13 15  1  0  0  0
  3  8  1  0  0  0
 17 16  1  0  0  0
 17 20  1  0  0  0
 17 18  1  0  0  0
 18 19  2  0  0  0
 20 21  1  0  0  0
 21 22  1  0  0  0
 22 23  1  0  0  0
 23 24  1  0  0  0
 24 26  1  0  0  0
 24 25  2  0  0  0
 10 16  1  0  0  0
 28 27  1  0  0  0
 28 31  1  0  0  0
 28 29  1  0  0  0
 29 30  2  0  0  0
 31 32  1  0  0  0
 32 34  1  0  0  0
 32 33  2  0  0  0
 18 27  1  0  0  0
 36 35  1  0  0  0
 36 39  1  0  0  0
 36 37  1  0  0  0
 37 38  2  0  0  0
 39 40  1  0  0  0
 40 41  1  0  0  0
 41 42  1  0  0  0
 42 43  1  0  0  0
 29 35  1  0  0  0
 45 44  1  0  0  0
 45 48  1  0  0  0
 45 46  1  0  0  0
 46 47  2  0  0  0
 48 50  1  0  0  0
 48 49  1  0  0  0
 49 51  1  0  0  0
 37 44  1  0  0  0
 53 52  1  0  0  0
 53 56  1  0  0  0
 53 54  1  0  0  0
 54 55  2  0  0  0
 56 57  1  0  0  0
 57 58  1  0  0  0
 58 59  1  0  0  0
 59 60  1  0  0  0
 60 62  1  0  0  0
 60 61  2  0  0  0
 46 52  1  0  0  0
 64 63  1  0  0  0
 64 67  1  0  0  0
 64 65  1  0  0  0
 65 66  2  0  0  0
 54 63  1  0  0  0
 69 68  1  0  0  0
 69 72  1  0  0  0
 69 70  1  0  0  0
 70 71  2  0  0  0
 72 74  1  0  0  0
 72 73  1  0  0  0
 73 75  1  0  0  0
 65 68  1  0  0  0
 77 76  1  0  0  0
 77 78  1  0  0  0
 78 79  2  0  0  0
 70 76  1  0  0  0
 81 80  1  0  0  0
 81 84  1  0  0  0
 81 82  1  0  0  0
 82 83  2  0  0  0
 84 85  1  0  0  0
 85 86  1  0  0  0
 86 87  1  0  0  0
 87 88  1  0  0  0
 78 80  1  0  0  0
 90 89  1  0  0  0
 90 93  1  0  0  0
 90 91  1  0  0  0
 91 92  2  0  0  0
 93 94  1  0  0  0
 94 95  1  0  0  0
 95 96  1  0  0  0
 82 89  1  0  0  0
 98 97  1  0  0  0
 98101  1  0  0  0
 98 99  1  0  0  0
 99100  2  0  0  0
 91 97  1  0  0  0
103102  1  0  0  0
103106  1  0  0  0
103104  1  0  0  0
104105  2  0  0  0
106107  1  0  0  0
107108  1  0  0  0
108109  1  0  0  0
109110  1  0  0  0
110112  1  0  0  0
110111  2  0  0  0
 99102  1  0  0  0
114113  1  0  0  0
114117  1  0  0  0
114115  1  0  0  0
115116  2  0  0  0
117119  1  0  0  0
117118  1  0  0  0
104113  1  0  0  0
121120  1  0  0  0
121124  1  0  0  0
121122  1  0  0  0
122123  2  0  0  0
124125  1  0  0  0
125126  4  0  0  0
125127  4  0  0  0
127129  4  0  0  0
129130  4  0  0  0
130128  4  0  0  0
128126  4  0  0  0
115120  1  0  0  0
132131  1  0  0  0
132135  1  0  0  0
132133  1  0  0  0
133134  2  0  0  0
133137  1  0  0  0
135136  1  0  0  0
122131  1  0  0  0
  1138  1  0  0  0
  1139  1  0  0  0
  1140  1  0  0  0
  2141  1  0  0  0
  5142  1  0  0  0
  6143  1  0  0  0
  6144  1  0  0  0
  6145  1  0  0  0
  7146  1  0  0  0
  7147  1  0  0  0
  7148  1  0  0  0
  8149  1  0  0  0
  9150  1  0  0  0
 12151  1  0  0  0
 13152  1  0  0  0
 13153  1  0  0  0
 14154  1  0  0  0
 14155  1  0  0  0
 14156  1  0  0  0
 15157  1  0  0  0
 15158  1  0  0  0
 15159  1  0  0  0
 16160  1  0  0  0
 17161  1  0  0  0
 20162  1  0  0  0
 20163  1  0  0  0
 21164  1  0  0  0
 21165  1  0  0  0
 22166  1  0  0  0
 22167  1  0  0  0
 23168  1  0  0  0
 25169  1  0  0  0
 26170  1  0  0  0
 26171  1  0  0  0
 27172  1  0  0  0
 28173  1  0  0  0
 31174  1  0  0  0
 31175  1  0  0  0
 34176  1  0  0  0
 34177  1  0  0  0
 35178  1  0  0  0
 36179  1  0  0  0
 39180  1  0  0  0
 39181  1  0  0  0
 40182  1  0  0  0
 40183  1  0  0  0
 41184  1  0  0  0
 41185  1  0  0  0
 42186  1  0  0  0
 42187  1  0  0  0
 43188  1  0  0  0
 43189  1  0  0  0
 43190  1  0  0  0
 44191  1  0  0  0
 45192  1  0  0  0
 48193  1  0  0  0
 49194  1  0  0  0
 49195  1  0  0  0
 50196  1  0  0  0
 50197  1  0  0  0
 50198  1  0  0  0
 51199  1  0  0  0
 51200  1  0  0  0
 51201  1  0  0  0
 52202  1  0  0  0
 53203  1  0  0  0
 56204  1  0  0  0
 56205  1  0  0  0
 57206  1  0  0  0
 57207  1  0  0  0
 58208  1  0  0  0
 58209  1  0  0  0
 59210  1  0  0  0
 61211  1  0  0  0
 62212  1  0  0  0
 62213  1  0  0  0
 63214  1  0  0  0
 64215  1  0  0  0
 67216  1  0  0  0
 67217  1  0  0  0
 67218  1  0  0  0
 68219  1  0  0  0
 69220  1  0  0  0
 72221  1  0  0  0
 73222  1  0  0  0
 73223  1  0  0  0
 74224  1  0  0  0
 74225  1  0  0  0
 74226  1  0  0  0
 75227  1  0  0  0
 75228  1  0  0  0
 75229  1  0  0  0
 76230  1  0  0  0
 77231  1  0  0  0
 77232  1  0  0  0
 80233  1  0  0  0
 81234  1  0  0  0
 84235  1  0  0  0
 84236  1  0  0  0
 85237  1  0  0  0
 85238  1  0  0  0
 86239  1  0  0  0
 86240  1  0  0  0
 87241  1  0  0  0
 87242  1  0  0  0
 88243  1  0  0  0
 88244  1  0  0  0
 88245  1  0  0  0
 89246  1  0  0  0
 90247  1  0  0  0
 93248  1  0  0  0
 93249  1  0  0  0
 94250  1  0  0  0
 94251  1  0  0  0
 96252  1  0  0  0
 96253  1  0  0  0
 96254  1  0  0  0
 97255  1  0  0  0
 98256  1  0  0  0
101257  1  0  0  0
101258  1  0  0  0
101259  1  0  0  0
102260  1  0  0  0
103261  1  0  0  0
106262  1  0  0  0
106263  1  0  0  0
107264  1  0  0  0
107265  1  0  0  0
108266  1  0  0  0
108267  1  0  0  0
109268  1  0  0  0
111269  1  0  0  0
112270  1  0  0  0
112271  1  0  0  0
113272  1  0  0  0
114273  1  0  0  0
117274  1  0  0  0
118275  1  0  0  0
118276  1  0  0  0
118277  1  0  0  0
119278  1  0  0  0
119279  1  0  0  0
119280  1  0  0  0
120281  1  0  0  0
121282  1  0  0  0
124283  1  0  0  0
124284  1  0  0  0
126285  1  0  0  0
127286  1  0  0  0
128287  1  0  0  0
129288  1  0  0  0
130289  1  0  0  0
131290  1  0  0  0
132291  1  0  0  0
135292  1  0  0  0
135293  1  0  0  0
136294  1  0  0  0
137295  1  0  0  0
M  END
$$$$
