3u8w_ligand
  -I-interpret- 

 54 58  0  0  0  0  0  0  0  0999 V2000
    7.7050  -25.2730  -25.8720 C   0  0  0  0  0
    6.5200  -25.8870  -25.1300 C   0  0  0  0  0
    6.3280  -25.3300  -26.5450 C   0  0  0  0  0
    6.1540  -26.3110  -27.6450 N   0  0  0  0  0
    5.1370  -27.1850  -27.7210 C   0  0  0  0  0
    4.2480  -27.2820  -26.8780 O   0  0  0  0  0
    5.1110  -28.1080  -28.9590 C   0  0  0  0  0
    3.9240  -28.7730  -29.2710 C   0  0  0  0  0
    6.2260  -28.2920  -29.7800 C   0  0  0  0  0
    6.1420  -29.1360  -30.8900 C   0  0  0  0  0
    4.9500  -29.8000  -31.1960 C   0  0  0  0  0
    4.9240  -30.7060  -32.4300 C   0  0  0  0  0
    3.8220  -29.6210  -30.3770 C   0  0  0  0  0
    2.5700  -30.2300  -30.5780 C   0  0  0  0  0
    2.2640  -31.4420  -29.9660 C   0  0  0  0  0
    1.5720  -29.6230  -31.3480 C   0  0  0  0  0
    1.8110  -28.5430  -31.8930 O   0  0  0  0  0
    0.2910  -30.2580  -31.5150 N   0  0  0  0  0
   -0.7270  -29.5650  -32.3570 C   0  0  0  0  0
   -0.5780  -29.9310  -33.8380 C   0  0  0  0  0
    0.0330  -31.3510  -30.9630 N   0  0  0  0  0
    0.9990  -32.0000  -30.1670 C   0  0  0  0  0
    0.4540  -33.1340  -29.7200 N   0  0  0  0  0
   -0.7020  -33.2690  -30.1310 N   0  0  0  0  0
   -1.0690  -32.2430  -30.8930 C   0  0  0  0  0
   -2.3270  -32.1000  -31.5010 C   0  0  0  0  0
   -3.3680  -31.4210  -30.8510 C   0  0  0  0  0
   -3.1410  -30.7060  -29.2930 Cl  0  0  0  0  0
   -4.6190  -31.2880  -31.4600 C   0  0  0  0  0
   -4.8510  -31.8420  -32.7150 C   0  0  0  0  0
   -3.8240  -32.5250  -33.3630 C   0  0  0  0  0
   -2.5760  -32.6570  -32.7550 C   0  0  0  0  0
   -1.5960  -33.3120  -33.3940 F   0  0  0  0  0
    8.7397  -25.5227  -26.1068 H   0  0  0  0  0
    8.4948  -24.5445  -25.6885 H   0  0  0  0  0
    6.0428  -25.8146  -24.1527 H   0  0  0  0  0
    6.2879  -26.7937  -24.5714 H   0  0  0  0  0
    5.6594  -24.6013  -27.0032 H   0  0  0  0  0
    6.8505  -26.3222  -28.3901 H   0  0  0  0  0
    3.0519  -28.6266  -28.6338 H   0  0  0  0  0
    7.1603  -27.7778  -29.5549 H   0  0  0  0  0
    7.0162  -29.2787  -31.5253 H   0  0  0  0  0
    5.1545  -30.1161  -33.3172 H   0  0  0  0  0
    5.6659  -31.4962  -32.3147 H   0  0  0  0  0
    3.9332  -31.1484  -32.5336 H   0  0  0  0  0
    2.9993  -31.9476  -29.3401 H   0  0  0  0  0
   -0.5860  -28.4892  -32.2522 H   0  0  0  0  0
   -1.7177  -29.8741  -32.0238 H   0  0  0  0  0
    0.4131  -29.6390  -34.1852 H   0  0  0  0  0
   -0.7046  -31.0068  -33.9596 H   0  0  0  0  0
   -1.3369  -29.4066  -34.4187 H   0  0  0  0  0
   -5.4163  -30.7479  -30.9495 H   0  0  0  0  0
   -5.8283  -31.7425  -33.1874 H   0  0  0  0  0
   -3.9966  -32.9576  -34.3485 H   0  0  0  0  0
  1  2  1  0  0  0
  1  3  1  0  0  0
  2  3  1  0  0  0
  3  4  1  0  0  0
  4  5  1  0  0  0
  5  6  2  0  0  0
  5  7  1  0  0  0
  7  8  4  0  0  0
  7  9  4  0  0  0
  8 13  4  0  0  0
  9 10  4  0  0  0
 10 11  4  0  0  0
 11 12  1  0  0  0
 11 13  4  0  0  0
 13 14  1  0  0  0
 14 15  2  0  0  0
 14 16  1  0  0  0
 15 22  1  0  0  0
 16 17  2  0  0  0
 16 18  1  0  0  0
 18 19  1  0  0  0
 18 21  1  0  0  0
 19 20  1  0  0  0
 21 22  4  0  0  0
 21 25  4  0  0  0
 22 23  4  0  0  0
 23 24  4  0  0  0
 24 25  4  0  0  0
 25 26  1  0  0  0
 26 27  4  0  0  0
 26 32  4  0  0  0
 27 28  1  0  0  0
 27 29  4  0  0  0
 29 30  4  0  0  0
 30 31  4  0  0  0
 31 32  4  0  0  0
 32 33  1  0  0  0
  1 34  1  0  0  0
  1 35  1  0  0  0
  2 36  1  0  0  0
  2 37  1  0  0  0
  3 38  1  0  0  0
  4 39  1  0  0  0
  8 40  1  0  0  0
  9 41  1  0  0  0
 10 42  1  0  0  0
 12 43  1  0  0  0
 12 44  1  0  0  0
 12 45  1  0  0  0
 15 46  1  0  0  0
 19 47  1  0  0  0
 19 48  1  0  0  0
 20 49  1  0  0  0
 20 50  1  0  0  0
 20 51  1  0  0  0
 29 52  1  0  0  0
 30 53  1  0  0  0
 31 54  1  0  0  0
M  END
$$$$
