4hwb_ligand
  -I-interpret- 

 31 31  0  0  0  0  0  0  0  0999 V2000
    1.4000  -51.9290   52.4180 C   0  0  0  0  0
    0.5180  -52.2750   53.6230 C   0  0  0  0  0
    0.2620  -53.7740   53.7260 C   0  0  0  0  0
    0.5670  -54.4700   52.4000 C   0  0  0  0  0
   -0.9010  -54.0940   54.5820 N   0  3  0  0  0
   -1.0230  -55.4980   54.9990 C   0  0  0  0  0
   -2.2020  -55.5850   55.9760 C   0  0  0  0  0
   -3.6090  -55.9670   55.1600 S   0  0  0  0  0
   -4.6520  -56.1080   56.1560 O   0  0  0  0  0
   -3.8600  -54.8780   54.2370 O   0  0  0  0  0
   -3.3200  -57.2290   54.4790 O   0  0  0  0  0
    2.0420  -54.3260   52.0180 C   0  0  0  0  0
    2.5530  -52.9090   52.2530 C   0  0  0  0  0
    1.8183  -50.9351   52.5768 H   0  0  0  0  0
    0.7832  -51.9751   51.5205 H   0  0  0  0  0
   -0.4410  -51.7714   53.5012 H   0  0  0  0  0
    1.0329  -51.9526   54.5280 H   0  0  0  0  0
    0.9841  -54.3115   54.3407 H   0  0  0  0  0
   -0.0385  -54.0082   51.6201 H   0  0  0  0  0
    0.3396  -55.5307   52.5062 H   0  0  0  0  0
   -1.7318  -53.8853   54.0282 H   0  0  0  0  0
   -0.7876  -53.5490   55.4367 H   0  0  0  0  0
   -0.1040  -55.8356   55.4780 H   0  0  0  0  0
   -1.1946  -56.1398   54.1349 H   0  0  0  0  0
   -2.3276  -54.6200   56.4671 H   0  0  0  0  0
   -1.9964  -56.3626   56.7117 H   0  0  0  0  0
   -2.6260  -57.0897   53.8305 H   0  0  0  0  0
    2.1448  -54.5554   50.9574 H   0  0  0  0  0
    2.6243  -55.0071   52.6385 H   0  0  0  0  0
    3.1499  -52.9010   53.1650 H   0  0  0  0  0
    3.1470  -52.6057   51.3909 H   0  0  0  0  0
  1  2  1  0  0  0
  1 13  1  0  0  0
  2  3  1  0  0  0
  3  4  1  0  0  0
  3  5  1  0  0  0
  4 12  1  0  0  0
  5  6  1  0  0  0
  6  7  1  0  0  0
  7  8  1  0  0  0
  8  9  2  0  0  0
  8 10  2  0  0  0
  8 11  1  0  0  0
 12 13  1  0  0  0
  1 14  1  0  0  0
  1 15  1  0  0  0
  2 16  1  0  0  0
  2 17  1  0  0  0
  3 18  1  0  0  0
  4 19  1  0  0  0
  4 20  1  0  0  0
  5 21  1  0  0  0
  5 22  1  0  0  0
  6 23  1  0  0  0
  6 24  1  0  0  0
  7 25  1  0  0  0
  7 26  1  0  0  0
 11 27  1  0  0  0
 12 28  1  0  0  0
 12 29  1  0  0  0
 13 30  1  0  0  0
 13 31  1  0  0  0
M  END
$$$$
