5agv_ligand
  -I-interpret- 

191195  0  0  0  0  0  0  0  0999 V2000
  -35.3540   38.8400   12.6840 C   0  0  0  0  0
  -34.1600   39.1140   12.5870 O   0  0  0  0  0
  -36.3790   39.4660   11.7860 C   0  0  0  0  0
  -35.8130   37.9600   13.5790 N   0  0  0  0  0
  -34.8440   37.2560   14.4240 C   0  0  0  0  0
  -35.0740   35.7740   14.3100 C   0  0  0  0  0
  -35.6510   35.1420   15.1900 O   0  0  0  0  0
  -35.0320   37.7540   15.8600 C   0  0  0  0  0
  -33.9740   37.1870   16.8000 C   0  0  0  0  0
  -35.0260   39.2810   15.9580 C   0  0  0  0  0
  -37.2220   37.6160   13.7490 C   0  0  0  0  0
  -34.6170   35.1900   13.1950 N   0  0  0  0  0
  -34.8650   33.7730   12.9270 C   0  0  0  0  0
  -34.1060   32.8900   13.8790 C   0  0  0  0  0
  -33.1050   33.3170   14.4430 O   0  0  0  0  0
  -34.2770   33.5590   11.5300 C   0  0  0  0  0
  -33.2140   34.6270   11.4070 C   0  0  0  0  0
  -33.8300   35.8220   12.1310 C   0  0  0  0  0
  -32.8610   34.9130    9.9480 C   0  0  0  0  0
  -34.5430   31.6420   14.0440 N   0  0  0  0  0
  -33.6920   30.7680   14.8870 C   0  0  0  0  0
  -32.8250   29.9010   14.0220 C   0  0  0  0  0
  -33.0640   29.8150   12.8290 O   0  0  0  0  0
  -34.4610   29.8770   15.8980 C   0  0  0  0  0
  -35.1470   28.8570   15.1750 O   0  0  0  0  0
  -35.4360   30.6500   16.7810 C   0  0  0  0  0
  -35.7620   31.1520   13.3860 C   0  0  0  0  0
  -31.7950   29.2650   14.6090 N   0  0  0  0  0
  -31.0570   28.2080   13.9370 C   0  0  0  0  0
  -32.0000   27.1360   13.4420 C   0  0  0  0  0
  -32.9480   26.8080   14.1270 O   0  0  0  0  0
  -30.0650   27.5400   14.8950 C   0  0  0  0  0
  -28.8920   28.4490   15.3100 C   0  0  0  0  0
  -28.1470   27.8030   16.4820 C   0  0  0  0  0
  -27.9310   28.7140   14.1450 C   0  0  0  0  0
  -31.7790   26.5480   12.2660 N   0  0  0  0  0
  -32.7320   25.5410   11.7810 C   0  0  0  0  0
  -32.5870   24.2220   12.5010 C   0  0  0  0  0
  -32.2960   23.1930   11.9150 O   0  0  0  0  0
  -32.3630   25.4230   10.3050 C   0  0  0  0  0
  -30.8870   25.7780   10.2200 C   0  0  0  0  0
  -30.6910   26.8240   11.3190 C   0  0  0  0  0
  -30.4980   26.2780    8.8270 C   0  0  0  0  0
  -32.7600   24.2420   13.8210 N   0  0  0  0  0
  -32.7520   23.0200   14.5960 C   0  0  0  0  0
  -34.0300   22.2700   14.3340 C   0  0  0  0  0
  -35.0770   22.9050   14.2640 O   0  0  0  0  0
  -32.7210   23.3550   16.0840 C   0  0  0  0  0
  -31.3950   23.9830   16.5060 C   0  0  0  0  0
  -30.3340   22.9010   16.6590 C   0  0  0  0  0
  -31.5930   24.7710   17.7960 C   0  0  0  0  0
  -33.9520   20.9470   14.2060 N   0  0  0  0  0
  -35.2080   20.2230   13.9990 C   0  0  0  0  0
  -35.4150   19.1470   15.0320 C   0  0  0  0  0
  -34.7880   18.1020   14.9390 O   0  0  0  0  0
  -35.1400   19.5570   12.6220 C   0  0  0  0  0
  -34.8130   20.5370   11.4990 C   0  0  0  0  0
  -36.4540   18.8390   12.3220 C   0  0  0  0  0
  -32.6890   20.2020   14.2690 C   0  0  0  0  0
  -36.2650   19.3560   16.0460 N   0  0  0  0  0
  -37.1680   20.5040   16.1310 C   0  0  0  0  0
  -36.4890   21.6740   16.7790 C   0  0  0  0  0
  -35.3670   21.5080   17.2250 O   0  0  0  0  0
  -38.2060   19.9870   17.1190 C   0  0  0  0  0
  -37.3980   19.1560   18.0930 C   0  0  0  0  0
  -38.2820   18.2110   18.9000 C   0  0  0  0  0
  -37.4270   17.2980   19.7660 C   0  0  0  0  0
  -38.2870   16.4530   20.7040 C   0  0  0  0  0
  -39.2050   17.3190   21.5550 C   0  0  0  0  0
  -40.0920   18.1650   20.6530 C   0  0  0  0  0
  -39.2140   19.0420   19.7710 C   0  0  0  0  0
  -36.4030   18.4480   17.1940 C   0  0  0  0  0
  -37.1340   22.8400   16.8810 N   0  0  0  0  0
  -36.5200   23.8930   17.6810 C   0  0  0  0  0
  -36.5970   25.1810   16.9250 C   0  0  0  0  0
  -37.1690   26.1510   17.3970 O   0  0  0  0  0
  -37.3380   24.0460   18.9670 C   0  0  0  0  0
  -37.2280   22.8380   19.8970 C   0  0  0  0  0
  -38.2390   22.9440   21.0370 C   0  0  0  0  0
  -35.8180   22.6470   20.4460 C   0  0  0  0  0
  -38.4060   23.1990   16.2530 C   0  0  0  0  0
  -34.5680   27.2860   16.7930 O   0  0  0  0  0
  -35.1660   27.5240   15.7490 C   0  0  0  0  0
  -35.9360   26.4580   14.9980 C   0  0  0  0  0
  -36.0100   25.2110   15.7320 N   0  0  0  0  0
  -36.3613   40.5481   11.9155 H   0  0  0  0  0
  -36.1511   39.2191   10.7491 H   0  0  0  0  0
  -37.3671   39.0842   12.0430 H   0  0  0  0  0
  -33.8185   37.4529   14.1116 H   0  0  0  0  0
  -36.0138   37.3940   16.1675 H   0  0  0  0  0
  -32.9938   37.5686   16.5142 H   0  0  0  0  0
  -34.1989   37.4894   17.8228 H   0  0  0  0  0
  -33.9755   36.0991   16.7327 H   0  0  0  0  0
  -35.2487   39.5789   16.9826 H   0  0  0  0  0
  -34.0436   39.6582   15.6740 H   0  0  0  0  0
  -35.7815   39.6898   15.2870 H   0  0  0  0  0
  -37.3644   36.5567   13.5353 H   0  0  0  0  0
  -37.5244   37.8248   14.7752 H   0  0  0  0  0
  -37.8252   38.2107   13.0630 H   0  0  0  0  0
  -35.9235   33.5315   13.0235 H   0  0  0  0  0
  -35.0330   33.6395   10.7489 H   0  0  0  0  0
  -33.8687   32.5561   11.4050 H   0  0  0  0  0
  -32.2574   34.3393   11.8432 H   0  0  0  0  0
  -33.0822   36.5168   12.5133 H   0  0  0  0  0
  -34.4326   36.4499   11.4747 H   0  0  0  0  0
  -32.4867   34.0021    9.4808 H   0  0  0  0  0
  -33.7516   35.2541    9.4202 H   0  0  0  0  0
  -32.0938   35.6861    9.9060 H   0  0  0  0  0
  -33.0934   31.4529   15.4876 H   0  0  0  0  0
  -33.7270   29.4472   16.5796 H   0  0  0  0  0
  -34.8891   31.3967   17.3568 H   0  0  0  0  0
  -36.1781   31.1446   16.1542 H   0  0  0  0  0
  -35.9349   29.9591   17.4606 H   0  0  0  0  0
  -36.6129   31.7536   13.7058 H   0  0  0  0  0
  -35.6462   31.2299   12.3050 H   0  0  0  0  0
  -35.9281   30.1104   13.6608 H   0  0  0  0  0
  -31.5234   29.5328   15.5550 H   0  0  0  0  0
  -30.5256   28.6669   13.1033 H   0  0  0  0  0
  -29.6416   26.6798   14.3764 H   0  0  0  0  0
  -30.6125   27.2820   15.8015 H   0  0  0  0  0
  -29.2970   29.4143   15.6137 H   0  0  0  0  0
  -28.8308   27.6796   17.3218 H   0  0  0  0  0
  -27.7660   26.8287   16.1759 H   0  0  0  0  0
  -27.3159   28.4425   16.7794 H   0  0  0  0  0
  -27.5209   27.7679   13.7916 H   0  0  0  0  0
  -28.4711   29.2029   13.3342 H   0  0  0  0  0
  -27.1203   29.3589   14.4840 H   0  0  0  0  0
  -33.7719   25.8208   11.9498 H   0  0  0  0  0
  -32.9680   26.0889    9.6896 H   0  0  0  0  0
  -32.5525   24.4184    9.9270 H   0  0  0  0  0
  -30.2353   24.9174   10.3706 H   0  0  0  0  0
  -29.7083   26.7555   11.7856 H   0  0  0  0  0
  -30.7265   27.8426   10.9326 H   0  0  0  0  0
  -30.7048   25.4999    8.0922 H   0  0  0  0  0
  -31.0778   27.1693    8.5873 H   0  0  0  0  0
  -29.4352   26.5197    8.8128 H   0  0  0  0  0
  -32.9007   25.1345   14.2943 H   0  0  0  0  0
  -31.8795   22.4286   14.3182 H   0  0  0  0  0
  -32.8506   22.4283   16.6431 H   0  0  0  0  0
  -33.5160   24.0726   16.2868 H   0  0  0  0  0
  -31.0494   24.6756   15.7386 H   0  0  0  0  0
  -30.6520   22.1869   17.4186 H   0  0  0  0  0
  -30.2019   22.3863   15.7073 H   0  0  0  0  0
  -29.3915   23.3582   16.9602 H   0  0  0  0  0
  -32.3311   25.5559   17.6311 H   0  0  0  0  0
  -31.9435   24.0998   18.5801 H   0  0  0  0  0
  -30.6455   25.2187   18.0959 H   0  0  0  0  0
  -36.0336   20.9304   14.0768 H   0  0  0  0  0
  -34.3219   18.8378   12.6612 H   0  0  0  0  0
  -35.5821   21.3082   11.4560 H   0  0  0  0  0
  -33.8444   20.9984   11.6917 H   0  0  0  0  0
  -34.7797   20.0020   10.5499 H   0  0  0  0  0
  -36.6315   18.0768   13.0807 H   0  0  0  0  0
  -37.2711   19.5603   12.3316 H   0  0  0  0  0
  -36.3939   18.3692   11.3403 H   0  0  0  0  0
  -32.0242   20.5489   13.4780 H   0  0  0  0  0
  -32.2192   20.3671   15.2386 H   0  0  0  0  0
  -32.8889   19.1386   14.1370 H   0  0  0  0  0
  -37.5374   20.8310   15.1590 H   0  0  0  0  0
  -38.9899   19.4077   16.6311 H   0  0  0  0  0
  -38.7465   20.7947   17.6126 H   0  0  0  0  0
  -36.8992   19.7426   18.8644 H   0  0  0  0  0
  -38.8666   17.5868   18.2241 H   0  0  0  0  0
  -36.7620   17.9162   20.3691 H   0  0  0  0  0
  -36.8658   16.6286   19.1141 H   0  0  0  0  0
  -37.6265   15.8953   21.3680 H   0  0  0  0  0
  -38.9037   15.7876   20.0999 H   0  0  0  0  0
  -38.6029   17.9726   22.1862 H   0  0  0  0  0
  -39.8292   16.6796   22.1793 H   0  0  0  0  0
  -40.7421   18.7926   21.2625 H   0  0  0  0  0
  -40.7057   17.5155   20.0289 H   0  0  0  0  0
  -39.8604   19.6294   19.1190 H   0  0  0  0  0
  -38.6062   19.6774   20.4152 H   0  0  0  0  0
  -35.4521   18.2597   17.6925 H   0  0  0  0  0
  -36.7410   17.4542   16.9004 H   0  0  0  0  0
  -35.4816   23.6465   17.9024 H   0  0  0  0  0
  -38.3851   24.1498   18.6824 H   0  0  0  0  0
  -36.9515   24.9125   19.5035 H   0  0  0  0  0
  -37.4570   21.9559   19.2990 H   0  0  0  0  0
  -38.0448   23.8507   21.6100 H   0  0  0  0  0
  -39.2472   22.9824   20.6244 H   0  0  0  0  0
  -38.1440   22.0743   21.6872 H   0  0  0  0  0
  -35.1245   22.4974   19.6185 H   0  0  0  0  0
  -35.5263   23.5325   21.0107 H   0  0  0  0  0
  -35.7991   21.7751   21.0998 H   0  0  0  0  0
  -38.3083   23.1262   15.1698 H   0  0  0  0  0
  -39.1841   22.5169   16.5956 H   0  0  0  0  0
  -38.6697   24.2204   16.5274 H   0  0  0  0  0
  -35.4181   26.2664   14.0583 H   0  0  0  0  0
  -36.9525   26.8205   14.8450 H   0  0  0  0  0
  -35.6133   24.3592   15.3352 H   0  0  0  0  0
  1  2  2  0  0  0
  1  3  1  0  0  0
  1  4  1  0  0  0
  4  5  1  0  0  0
  4 11  1  0  0  0
  5  6  1  0  0  0
  5  8  1  0  0  0
  6  7  2  0  0  0
  6 12  1  0  0  0
  8  9  1  0  0  0
  8 10  1  0  0  0
 12 13  1  0  0  0
 12 18  1  0  0  0
 13 14  1  0  0  0
 13 16  1  0  0  0
 14 15  2  0  0  0
 14 20  1  0  0  0
 16 17  1  0  0  0
 17 18  1  0  0  0
 17 19  1  0  0  0
 20 21  1  0  0  0
 20 27  1  0  0  0
 21 22  1  0  0  0
 21 24  1  0  0  0
 22 23  2  0  0  0
 22 28  1  0  0  0
 24 25  1  0  0  0
 24 26  1  0  0  0
 25 83  1  0  0  0
 28 29  1  0  0  0
 29 30  1  0  0  0
 29 32  1  0  0  0
 30 31  2  0  0  0
 30 36  1  0  0  0
 32 33  1  0  0  0
 33 34  1  0  0  0
 33 35  1  0  0  0
 36 37  1  0  0  0
 36 42  1  0  0  0
 37 38  1  0  0  0
 37 40  1  0  0  0
 38 39  2  0  0  0
 38 44  1  0  0  0
 40 41  1  0  0  0
 41 42  1  0  0  0
 41 43  1  0  0  0
 44 45  1  0  0  0
 45 46  1  0  0  0
 45 48  1  0  0  0
 46 47  2  0  0  0
 46 52  1  0  0  0
 48 49  1  0  0  0
 49 50  1  0  0  0
 49 51  1  0  0  0
 52 53  1  0  0  0
 52 59  1  0  0  0
 53 54  1  0  0  0
 53 56  1  0  0  0
 54 55  2  0  0  0
 54 60  1  0  0  0
 56 57  1  0  0  0
 56 58  1  0  0  0
 60 61  1  0  0  0
 60 72  1  0  0  0
 61 62  1  0  0  0
 61 64  1  0  0  0
 62 63  2  0  0  0
 62 73  1  0  0  0
 64 65  1  0  0  0
 65 66  1  0  0  0
 65 72  1  0  0  0
 66 67  1  0  0  0
 66 71  1  0  0  0
 67 68  1  0  0  0
 68 69  1  0  0  0
 69 70  1  0  0  0
 70 71  1  0  0  0
 73 74  1  0  0  0
 73 81  1  0  0  0
 74 75  1  0  0  0
 74 77  1  0  0  0
 75 76  2  0  0  0
 75 85  1  0  0  0
 77 78  1  0  0  0
 78 79  1  0  0  0
 78 80  1  0  0  0
 83 82  2  0  0  0
 83 84  1  0  0  0
 84 85  1  0  0  0
  3 86  1  0  0  0
  3 87  1  0  0  0
  3 88  1  0  0  0
  5 89  1  0  0  0
  8 90  1  0  0  0
  9 91  1  0  0  0
  9 92  1  0  0  0
  9 93  1  0  0  0
 10 94  1  0  0  0
 10 95  1  0  0  0
 10 96  1  0  0  0
 11 97  1  0  0  0
 11 98  1  0  0  0
 11 99  1  0  0  0
 13100  1  0  0  0
 16101  1  0  0  0
 16102  1  0  0  0
 17103  1  0  0  0
 18104  1  0  0  0
 18105  1  0  0  0
 19106  1  0  0  0
 19107  1  0  0  0
 19108  1  0  0  0
 21109  1  0  0  0
 24110  1  0  0  0
 26111  1  0  0  0
 26112  1  0  0  0
 26113  1  0  0  0
 27114  1  0  0  0
 27115  1  0  0  0
 27116  1  0  0  0
 28117  1  0  0  0
 29118  1  0  0  0
 32119  1  0  0  0
 32120  1  0  0  0
 33121  1  0  0  0
 34122  1  0  0  0
 34123  1  0  0  0
 34124  1  0  0  0
 35125  1  0  0  0
 35126  1  0  0  0
 35127  1  0  0  0
 37128  1  0  0  0
 40129  1  0  0  0
 40130  1  0  0  0
 41131  1  0  0  0
 42132  1  0  0  0
 42133  1  0  0  0
 43134  1  0  0  0
 43135  1  0  0  0
 43136  1  0  0  0
 44137  1  0  0  0
 45138  1  0  0  0
 48139  1  0  0  0
 48140  1  0  0  0
 49141  1  0  0  0
 50142  1  0  0  0
 50143  1  0  0  0
 50144  1  0  0  0
 51145  1  0  0  0
 51146  1  0  0  0
 51147  1  0  0  0
 53148  1  0  0  0
 56149  1  0  0  0
 57150  1  0  0  0
 57151  1  0  0  0
 57152  1  0  0  0
 58153  1  0  0  0
 58154  1  0  0  0
 58155  1  0  0  0
 59156  1  0  0  0
 59157  1  0  0  0
 59158  1  0  0  0
 61159  1  0  0  0
 64160  1  0  0  0
 64161  1  0  0  0
 65162  1  0  0  0
 66163  1  0  0  0
 67164  1  0  0  0
 67165  1  0  0  0
 68166  1  0  0  0
 68167  1  0  0  0
 69168  1  0  0  0
 69169  1  0  0  0
 70170  1  0  0  0
 70171  1  0  0  0
 71172  1  0  0  0
 71173  1  0  0  0
 72174  1  0  0  0
 72175  1  0  0  0
 74176  1  0  0  0
 77177  1  0  0  0
 77178  1  0  0  0
 78179  1  0  0  0
 79180  1  0  0  0
 79181  1  0  0  0
 79182  1  0  0  0
 80183  1  0  0  0
 80184  1  0  0  0
 80185  1  0  0  0
 81186  1  0  0  0
 81187  1  0  0  0
 81188  1  0  0  0
 84189  1  0  0  0
 84190  1  0  0  0
 85191  1  0  0  0
M  END
$$$$
