### 
### Created by X-TOOL on Sun Sep  9 21:52:56 2018
### 

@<TRIPOS>MOLECULE
5agv_ligand
  191   195     1     0     0
SMALL
GAST_HUCK


@<TRIPOS>ATOM
      1 C         -35.3540   38.8400   12.6840 C.2       1 NON         0.1774
      2 O         -34.1600   39.1140   12.5870 O.2       1 NON        -0.3970
      3 CH3       -36.3790   39.4660   11.7860 C.3       1 NON         0.0260
      4 N         -35.8130   37.9600   13.5790 N.am      1 NON        -0.2547
      5 CA        -34.8440   37.2560   14.4240 C.3       1 NON         0.1358
      6 C         -35.0740   35.7740   14.3100 C.2       1 NON         0.2069
      7 O         -35.6510   35.1420   15.1900 O.2       1 NON        -0.3942
      8 CB        -35.0320   37.7540   15.8600 C.3       1 NON        -0.0061
      9 CG1       -33.9740   37.1870   16.8000 C.3       1 NON        -0.0584
     10 CG2       -35.0260   39.2810   15.9580 C.3       1 NON        -0.0584
     11 CN        -37.2220   37.6160   13.7490 C.3       1 NON         0.0254
     12 N         -34.6170   35.1900   13.1950 N.am      1 NON        -0.2495
     13 CA        -34.8650   33.7730   12.9270 C.3       1 NON         0.1342
     14 C         -34.1060   32.8900   13.8790 C.2       1 NON         0.2065
     15 O         -33.1050   33.3170   14.4430 O.2       1 NON        -0.3942
     16 CB        -34.2770   33.5590   11.5300 C.3       1 NON        -0.0078
     17 CG        -33.2140   34.6270   11.4070 C.3       1 NON        -0.0190
     18 CD        -33.8300   35.8220   12.1310 C.3       1 NON         0.0395
     19 CE        -32.8610   34.9130    9.9480 C.3       1 NON        -0.0604
     20 N         -34.5430   31.6420   14.0440 N.am      1 NON        -0.2500
     21 CA        -33.6920   30.7680   14.8870 C.3       1 NON         0.1634
     22 C         -32.8250   29.9010   14.0220 C.2       1 NON         0.2070
     23 O         -33.0640   29.8150   12.8290 O.2       1 NON        -0.3943
     24 CB        -34.4610   29.8770   15.8980 C.3       1 NON         0.1249
     25 OG1       -35.1470   28.8570   15.1750 O.3       1 NON        -0.2675
     26 CG2       -35.4360   30.6500   16.7810 C.3       1 NON        -0.0298
     27 C40       -35.7620   31.1520   13.3860 C.3       1 NON         0.0255
     28 N         -31.7950   29.2650   14.6090 N.am      1 NON        -0.2636
     29 CA        -31.0570   28.2080   13.9370 C.3       1 NON         0.1314
     30 C         -32.0000   27.1360   13.4420 C.2       1 NON         0.2064
     31 O         -32.9480   26.8080   14.1270 O.2       1 NON        -0.3942
     32 CB        -30.0650   27.5400   14.8950 C.3       1 NON        -0.0101
     33 CG        -28.8920   28.4490   15.3100 C.3       1 NON        -0.0425
     34 CD1       -28.1470   27.8030   16.4820 C.3       1 NON        -0.0625
     35 CD2       -27.9310   28.7140   14.1450 C.3       1 NON        -0.0625
     36 N         -31.7790   26.5480   12.2660 N.am      1 NON        -0.2496
     37 CA        -32.7320   25.5410   11.7810 C.3       1 NON         0.1340
     38 C         -32.5870   24.2220   12.5010 C.2       1 NON         0.2041
     39 O         -32.2960   23.1930   11.9150 O.2       1 NON        -0.3944
     40 CB        -32.3630   25.4230   10.3050 C.3       1 NON        -0.0078
     41 CG        -30.8870   25.7780   10.2200 C.3       1 NON        -0.0190
     42 CD        -30.6910   26.8240   11.3190 C.3       1 NON         0.0395
     43 CE        -30.4980   26.2780    8.8270 C.3       1 NON        -0.0604
     44 N         -32.7600   24.2420   13.8210 N.am      1 NON        -0.2637
     45 CA        -32.7520   23.0200   14.5960 C.3       1 NON         0.1314
     46 C         -34.0300   22.2700   14.3340 C.2       1 NON         0.2062
     47 O         -35.0770   22.9050   14.2640 O.2       1 NON        -0.3942
     48 CB        -32.7210   23.3550   16.0840 C.3       1 NON        -0.0101
     49 CG        -31.3950   23.9830   16.5060 C.3       1 NON        -0.0425
     50 CD1       -30.3340   22.9010   16.6590 C.3       1 NON        -0.0625
     51 CD2       -31.5930   24.7710   17.7960 C.3       1 NON        -0.0625
     52 N         -33.9520   20.9470   14.2060 N.am      1 NON        -0.2526
     53 CA        -35.2080   20.2230   13.9990 C.3       1 NON         0.1359
     54 C         -35.4150   19.1470   15.0320 C.2       1 NON         0.2069
     55 O         -34.7880   18.1020   14.9390 O.2       1 NON        -0.3942
     56 CB        -35.1400   19.5570   12.6220 C.3       1 NON        -0.0061
     57 CG1       -34.8130   20.5370   11.4990 C.3       1 NON        -0.0584
     58 CG2       -36.4540   18.8390   12.3220 C.3       1 NON        -0.0584
     59 CN        -32.6890   20.2020   14.2690 C.3       1 NON         0.0254
     60 N         -36.2650   19.3560   16.0460 N.am      1 NON        -0.2495
     61 CA        -37.1680   20.5040   16.1310 C.3       1 NON         0.1342
     62 C         -36.4890   21.6740   16.7790 C.2       1 NON         0.2064
     63 O         -35.3670   21.5080   17.2250 O.2       1 NON        -0.3942
     64 CB        -38.2060   19.9870   17.1190 C.3       1 NON        -0.0073
     65 CG        -37.3980   19.1560   18.0930 C.3       1 NON        -0.0134
     66 C1        -38.2820   18.2110   18.9000 C.3       1 NON        -0.0362
     67 C6        -37.4270   17.2980   19.7660 C.3       1 NON        -0.0499
     68 C5        -38.2870   16.4530   20.7040 C.3       1 NON        -0.0528
     69 C4        -39.2050   17.3190   21.5550 C.3       1 NON        -0.0530
     70 C3        -40.0920   18.1650   20.6530 C.3       1 NON        -0.0528
     71 C2        -39.2140   19.0420   19.7710 C.3       1 NON        -0.0499
     72 CD        -36.4030   18.4480   17.1940 C.3       1 NON         0.0400
     73 N         -37.1340   22.8400   16.8810 N.am      1 NON        -0.2529
     74 CA        -36.5200   23.8930   17.6810 C.3       1 NON         0.1336
     75 C         -36.5970   25.1810   16.9250 C.2       1 NON         0.2040
     76 O         -37.1690   26.1510   17.3970 O.2       1 NON        -0.3944
     77 CB        -37.3380   24.0460   18.9670 C.3       1 NON        -0.0099
     78 CG        -37.2280   22.8380   19.8970 C.3       1 NON        -0.0425
     79 CD1       -38.2390   22.9440   21.0370 C.3       1 NON        -0.0625
     80 CD2       -35.8180   22.6470   20.4460 C.3       1 NON        -0.0625
     81 CN        -38.4060   23.1990   16.2530 C.3       1 NON         0.0254
     82 O9        -34.5680   27.2860   16.7930 O.2       1 NON        -0.3681
     83 C11       -35.1660   27.5240   15.7490 C.2       1 NON         0.2569
     84 C10       -35.9360   26.4580   14.9980 C.3       1 NON         0.1314
     85 N3        -36.0100   25.2110   15.7320 N.am      1 NON        -0.2650
     86 H1        -37.3767   39.0814   12.0444 H         1 NON         0.0467
     87 H2        -36.1501   39.2175   10.7392 H         1 NON         0.0467
     88 H3        -36.3622   40.5582   11.9158 H         1 NON         0.0467
     89 H4        -33.8213   37.4862   14.0906 H         1 NON         0.0804
     90 H5        -36.0151   37.3991   16.2028 H         1 NON         0.0343
     91 H6        -34.1451   37.5685   17.8174 H         1 NON         0.0234
     92 H7        -32.9754   37.4945   16.4563 H         1 NON         0.0234
     93 H8        -34.0382   36.0889   16.8046 H         1 NON         0.0234
     94 H9        -35.7881   39.6948   15.2812 H         1 NON         0.0234
     95 H10       -34.0350   39.6629   15.6715 H         1 NON         0.0234
     96 H11       -35.2507   39.5830   16.9916 H         1 NON         0.0234
     97 H12       -37.8318   38.2156   13.0572 H         1 NON         0.0488
     98 H13       -37.5285   37.8263   14.7843 H         1 NON         0.0488
     99 H14       -37.3671   36.5471   13.5335 H         1 NON         0.0488
    100 H15       -35.9401   33.5429   12.9625 H         1 NON         0.0802
    101 H16       -35.0497   33.6871   10.7577 H         1 NON         0.0316
    102 H17       -33.8340   32.5559   11.4427 H         1 NON         0.0316
    103 H18       -32.2969   34.3100   11.9252 H         1 NON         0.0320
    104 H19       -33.0507   36.4755   12.5500 H         1 NON         0.0527
    105 H20       -34.4735   36.4051   11.4558 H         1 NON         0.0527
    106 H21       -32.4243   34.0117    9.4930 H         1 NON         0.0233
    107 H22       -32.1333   35.7366    9.9014 H         1 NON         0.0233
    108 H23       -33.7712   35.1965    9.3993 H         1 NON         0.0233
    109 H24       -33.0365   31.4290   15.4729 H         1 NON         0.0832
    110 H25       -33.7218   29.4008   16.5588 H         1 NON         0.0696
    111 H26       -35.9402   29.9537   17.4673 H         1 NON         0.0260
    112 H27       -36.1855   31.1496   16.1496 H         1 NON         0.0260
    113 H28       -34.8853   31.4039   17.3627 H         1 NON         0.0260
    114 H29       -36.2266   31.9713   12.8178 H         1 NON         0.0488
    115 H30       -36.4679   30.7870   14.1466 H         1 NON         0.0488
    116 H31       -35.5042   30.3309   12.7009 H         1 NON         0.0488
    117 H32       -31.5287   29.5275   15.5365 H         1 NON         0.1883
    118 H33       -30.5109   28.6405   13.0857 H         1 NON         0.0800
    119 H34       -29.6538   26.6472   14.4012 H         1 NON         0.0315
    120 H35       -30.6086   27.2394   15.8028 H         1 NON         0.0315
    121 H36       -29.3017   29.4144   15.6418 H         1 NON         0.0298
    122 H37       -27.3080   28.4475   16.7831 H         1 NON         0.0232
    123 H38       -27.7619   26.8196   16.1744 H         1 NON         0.0232
    124 H39       -28.8360   27.6780   17.3303 H         1 NON         0.0232
    125 H40       -28.4820   29.1774   13.3133 H         1 NON         0.0232
    126 H41       -27.4912   27.7634   13.8089 H         1 NON         0.0232
    127 H42       -27.1304   29.3914   14.4769 H         1 NON         0.0232
    128 H43       -33.7661   25.8974   11.8973 H         1 NON         0.0802
    129 H44       -32.9610   26.1230    9.7030 H         1 NON         0.0316
    130 H45       -32.5315   24.3961    9.9485 H         1 NON         0.0316
    131 H46       -30.2768   24.8908   10.4447 H         1 NON         0.0320
    132 H47       -29.7106   26.7041   11.8032 H         1 NON         0.0527
    133 H48       -30.7762   27.8418   10.9105 H         1 NON         0.0527
    134 H49       -30.6640   25.4778    8.0907 H         1 NON         0.0233
    135 H50       -29.4361   26.5648    8.8237 H         1 NON         0.0233
    136 H51       -31.1143   27.1507    8.5653 H         1 NON         0.0233
    137 H52       -32.8979   25.1170   14.2851 H         1 NON         0.1883
    138 H53       -31.8810   22.4060   14.3234 H         1 NON         0.0800
    139 H54       -32.8735   22.4296   16.6588 H         1 NON         0.0315
    140 H55       -33.5341   24.0621   16.3050 H         1 NON         0.0315
    141 H56       -31.0672   24.6798   15.7205 H         1 NON         0.0298
    142 H57       -29.3822   23.3612   16.9630 H         1 NON         0.0232
    143 H58       -30.1996   22.3808   15.6991 H         1 NON         0.0232
    144 H59       -30.6537   22.1796   17.4254 H         1 NON         0.0232
    145 H60       -32.3651   25.5392   17.6416 H         1 NON         0.0232
    146 H61       -30.6464   25.2544   18.0794 H         1 NON         0.0232
    147 H62       -31.9105   24.0881   18.5978 H         1 NON         0.0232
    148 H63       -36.0490   20.9310   14.0371 H         1 NON         0.0805
    149 H64       -34.3367   18.8063   12.6541 H         1 NON         0.0343
    150 H65       -34.7791   19.9983   10.5406 H         1 NON         0.0234
    151 H66       -33.8357   21.0033   11.6923 H         1 NON         0.0234
    152 H67       -35.5885   21.3158   11.4545 H         1 NON         0.0234
    153 H68       -36.6814   18.1352   13.1362 H         1 NON         0.0234
    154 H69       -36.3623   18.2869   11.3751 H         1 NON         0.0234
    155 H70       -37.2648   19.5777   12.2387 H         1 NON         0.0234
    156 H71       -31.8570   20.9037   14.4280 H         1 NON         0.0488
    157 H72       -32.5357   19.6596   13.3244 H         1 NON         0.0488
    158 H73       -32.7277   19.4844   15.1018 H         1 NON         0.0488
    159 H74       -37.5938   20.7785   15.1546 H         1 NON         0.0802
    160 H75       -38.9592   19.3691   16.6082 H         1 NON         0.0316
    161 H76       -38.7045   20.8206   17.6353 H         1 NON         0.0316
    162 H77       -36.8634   19.8094   18.7982 H         1 NON         0.0325
    163 H78       -38.8796   17.5951   18.2118 H         1 NON         0.0304
    164 H79       -36.7413   17.9136   20.3666 H         1 NON         0.0268
    165 H80       -36.8447   16.6294   19.1149 H         1 NON         0.0268
    166 H81       -37.6281   15.8728   21.3668 H         1 NON         0.0265
    167 H82       -38.9006   15.7654   20.1034 H         1 NON         0.0265
    168 H83       -38.5982   17.9779   22.1934 H         1 NON         0.0265
    169 H84       -39.8342   16.6745   22.1864 H         1 NON         0.0265
    170 H85       -40.7453   18.7999   21.2695 H         1 NON         0.0265
    171 H86       -40.7085   17.5081   20.0218 H         1 NON         0.0265
    172 H87       -39.8584   19.6528   19.1217 H         1 NON         0.0268
    173 H88       -38.6098   19.7006   20.4122 H         1 NON         0.0268
    174 H89       -35.4387   18.3129   17.7057 H         1 NON         0.0527
    175 H90       -36.7895   17.4686   16.8756 H         1 NON         0.0527
    176 H91       -35.4741   23.6430   17.9123 H         1 NON         0.0802
    177 H92       -38.3950   24.1828   18.6950 H         1 NON         0.0315
    178 H93       -36.9798   24.9357   19.5056 H         1 NON         0.0315
    179 H94       -37.4767   21.9434   19.3073 H         1 NON         0.0298
    180 H95       -38.1441   22.0668   21.6940 H         1 NON         0.0232
    181 H96       -39.2569   22.9828   20.6220 H         1 NON         0.0232
    182 H97       -38.0440   23.8586   21.6162 H         1 NON         0.0232
    183 H98       -35.1062   22.5730   19.6106 H         1 NON         0.0232
    184 H99       -35.7790   21.7244   21.0436 H         1 NON         0.0232
    185 H100      -35.5517   23.5058   21.0796 H         1 NON         0.0232
    186 H101      -38.7845   22.3425   15.6758 H         1 NON         0.0488
    187 H102      -38.2539   24.0560   15.5803 H         1 NON         0.0488
    188 H103      -39.1358   23.4683   17.0307 H         1 NON         0.0488
    189 H104      -35.4361   26.2726   14.0359 H         1 NON         0.0780
    190 H105      -36.9579   26.8222   14.8161 H         1 NON         0.0780
    191 H106      -35.6211   24.3759   15.3430 H         1 NON         0.1882
@<TRIPOS>BOND
     1    1    2 2  
     2    1    3 1  
     3    1    4 am 
     4    4    5 1  
     5    4   11 1  
     6    5    6 1  
     7    5    8 1  
     8    6    7 2  
     9    6   12 am 
    10    8    9 1  
    11    8   10 1  
    12   12   13 1  
    13   12   18 1  
    14   13   14 1  
    15   13   16 1  
    16   14   15 2  
    17   14   20 am 
    18   16   17 1  
    19   17   18 1  
    20   17   19 1  
    21   20   21 1  
    22   20   27 1  
    23   21   22 1  
    24   21   24 1  
    25   22   23 2  
    26   22   28 am 
    27   24   25 1  
    28   24   26 1  
    29   25   83 1  
    30   28   29 1  
    31   29   30 1  
    32   29   32 1  
    33   30   31 2  
    34   30   36 am 
    35   32   33 1  
    36   33   34 1  
    37   33   35 1  
    38   36   37 1  
    39   36   42 1  
    40   37   38 1  
    41   37   40 1  
    42   38   39 2  
    43   38   44 am 
    44   40   41 1  
    45   41   42 1  
    46   41   43 1  
    47   44   45 1  
    48   45   46 1  
    49   45   48 1  
    50   46   47 2  
    51   46   52 am 
    52   48   49 1  
    53   49   50 1  
    54   49   51 1  
    55   52   53 1  
    56   52   59 1  
    57   53   54 1  
    58   53   56 1  
    59   54   55 2  
    60   54   60 am 
    61   56   57 1  
    62   56   58 1  
    63   60   61 1  
    64   60   72 1  
    65   61   62 1  
    66   61   64 1  
    67   62   63 2  
    68   62   73 am 
    69   64   65 1  
    70   65   66 1  
    71   65   72 1  
    72   66   67 1  
    73   66   71 1  
    74   67   68 1  
    75   68   69 1  
    76   69   70 1  
    77   70   71 1  
    78   73   74 1  
    79   73   81 1  
    80   74   75 1  
    81   74   77 1  
    82   75   76 2  
    83   75   85 am 
    84   77   78 1  
    85   78   79 1  
    86   78   80 1  
    87   83   82 2  
    88   83   84 1  
    89   84   85 1  
    90    3   86 1  
    91    3   87 1  
    92    3   88 1  
    93    5   89 1  
    94    8   90 1  
    95    9   91 1  
    96    9   92 1  
    97    9   93 1  
    98   10   94 1  
    99   10   95 1  
   100   10   96 1  
   101   11   97 1  
   102   11   98 1  
   103   11   99 1  
   104   13  100 1  
   105   16  101 1  
   106   16  102 1  
   107   17  103 1  
   108   18  104 1  
   109   18  105 1  
   110   19  106 1  
   111   19  107 1  
   112   19  108 1  
   113   21  109 1  
   114   24  110 1  
   115   26  111 1  
   116   26  112 1  
   117   26  113 1  
   118   27  114 1  
   119   27  115 1  
   120   27  116 1  
   121   28  117 1  
   122   29  118 1  
   123   32  119 1  
   124   32  120 1  
   125   33  121 1  
   126   34  122 1  
   127   34  123 1  
   128   34  124 1  
   129   35  125 1  
   130   35  126 1  
   131   35  127 1  
   132   37  128 1  
   133   40  129 1  
   134   40  130 1  
   135   41  131 1  
   136   42  132 1  
   137   42  133 1  
   138   43  134 1  
   139   43  135 1  
   140   43  136 1  
   141   44  137 1  
   142   45  138 1  
   143   48  139 1  
   144   48  140 1  
   145   49  141 1  
   146   50  142 1  
   147   50  143 1  
   148   50  144 1  
   149   51  145 1  
   150   51  146 1  
   151   51  147 1  
   152   53  148 1  
   153   56  149 1  
   154   57  150 1  
   155   57  151 1  
   156   57  152 1  
   157   58  153 1  
   158   58  154 1  
   159   58  155 1  
   160   59  156 1  
   161   59  157 1  
   162   59  158 1  
   163   61  159 1  
   164   64  160 1  
   165   64  161 1  
   166   65  162 1  
   167   66  163 1  
   168   67  164 1  
   169   67  165 1  
   170   68  166 1  
   171   68  167 1  
   172   69  168 1  
   173   69  169 1  
   174   70  170 1  
   175   70  171 1  
   176   71  172 1  
   177   71  173 1  
   178   72  174 1  
   179   72  175 1  
   180   74  176 1  
   181   77  177 1  
   182   77  178 1  
   183   78  179 1  
   184   79  180 1  
   185   79  181 1  
   186   79  182 1  
   187   80  183 1  
   188   80  184 1  
   189   80  185 1  
   190   81  186 1  
   191   81  187 1  
   192   81  188 1  
   193   84  189 1  
   194   84  190 1  
   195   85  191 1  
@<TRIPOS>SUBSTRUCTURE
     1 NON         1

