4aqc_ligand
  -I-interpret- 

 55 59  0  0  0  0  0  0  0  0999 V2000
  110.3650   62.6770    8.3940 O   0  0  0  0  0
  111.1590   62.7640    7.1560 S   0  0  0  0  0
  111.4280   61.6220    6.2860 O   0  0  0  0  0
  110.2570   63.9630    6.1310 C   0  0  0  0  0
  112.6780   63.5930    7.4960 C   0  0  0  0  0
  113.0510   63.8360    8.8120 C   0  0  0  0  0
  114.2650   64.4980    9.0330 C   0  0  0  0  0
  113.4510   63.9860    6.4020 C   0  0  0  0  0
  114.6390   64.6630    6.6400 C   0  0  0  0  0
  115.0720   64.8990    7.9580 C   0  0  0  0  0
  116.3580   65.6140    8.1700 C   0  0  0  0  0
  116.5600   66.3780    9.3460 C   0  0  0  0  0
  115.8510   66.6090   10.4290 N   0  0  0  0  0
  116.6160   67.4320   11.1610 C   0  0  0  0  0
  117.7950   67.7300   10.6780 N   0  0  0  0  0
  117.7650   67.0780    9.4870 N   0  0  0  0  0
  118.7230   67.0660    8.5370 C   0  0  0  0  0
  118.5420   66.3330    7.4020 C   0  0  0  0  0
  117.3600   65.5880    7.2090 C   0  0  0  0  0
  116.1790   67.8910   12.3870 N   0  0  0  0  0
  115.1190   67.6440   13.1390 C   0  0  0  0  0
  114.0090   66.9130   12.6520 C   0  0  0  0  0
  112.9250   66.6520   13.4840 C   0  0  0  0  0
  112.8940   67.1210   14.8050 C   0  0  0  0  0
  113.9930   67.8720   15.2790 C   0  0  0  0  0
  115.0950   68.1100   14.4530 C   0  0  0  0  0
  111.8360   66.8500   15.5890 N   0  0  0  0  0
  111.0580   65.5960   15.4290 C   0  0  0  0  0
  110.2900   65.0560   16.6590 C   0  0  0  0  0
  109.9730   66.0590   17.6290 O   0  0  0  0  0
  111.0760   66.9190   17.9140 C   0  0  0  0  0
  111.3740   67.7450   16.6620 C   0  0  0  0  0
  109.2482   63.5941    5.9454 H   0  0  0  0  0
  110.2055   64.9188    6.6525 H   0  0  0  0  0
  110.7780   64.0928    5.1824 H   0  0  0  0  0
  112.4204   63.5222    9.6438 H   0  0  0  0  0
  114.5871   64.7044   10.0537 H   0  0  0  0  0
  113.1289   63.7662    5.3841 H   0  0  0  0  0
  115.2401   65.0139    5.8012 H   0  0  0  0  0
  119.6387   67.6405    8.6766 H   0  0  0  0  0
  119.3179   66.3225    6.6365 H   0  0  0  0  0
  117.2331   64.9918    6.3054 H   0  0  0  0  0
  116.8135   68.5709   12.8059 H   0  0  0  0  0
  114.0036   66.5538   11.6229 H   0  0  0  0  0
  112.0846   66.0724   13.1020 H   0  0  0  0  0
  113.9813   68.2679   16.2945 H   0  0  0  0  0
  115.9474   68.6675   14.8413 H   0  0  0  0  0
  111.7931   64.8284   15.1871 H   0  0  0  0  0
  110.2926   65.8232   14.6869 H   0  0  0  0  0
  110.9329   64.3237   17.1474 H   0  0  0  0  0
  109.3476   64.6439   16.2982 H   0  0  0  0  0
  111.9497   66.3287   18.1902 H   0  0  0  0  0
  110.8322   67.5773   18.7479 H   0  0  0  0  0
  110.4697   68.2626   16.3420 H   0  0  0  0  0
  112.1485   68.4790   16.8843 H   0  0  0  0  0
  1  2  2  0  0  0
  2  3  2  0  0  0
  2  4  1  0  0  0
  2  5  1  0  0  0
  5  6  4  0  0  0
  5  8  4  0  0  0
  6  7  4  0  0  0
  7 10  4  0  0  0
  8  9  4  0  0  0
  9 10  4  0  0  0
 10 11  1  0  0  0
 11 12  4  0  0  0
 11 19  4  0  0  0
 12 13  4  0  0  0
 12 16  4  0  0  0
 13 14  4  0  0  0
 14 15  4  0  0  0
 14 20  1  0  0  0
 15 16  4  0  0  0
 16 17  4  0  0  0
 17 18  4  0  0  0
 18 19  4  0  0  0
 20 21  1  0  0  0
 21 22  4  0  0  0
 21 26  4  0  0  0
 22 23  4  0  0  0
 23 24  4  0  0  0
 24 25  4  0  0  0
 24 27  1  0  0  0
 25 26  4  0  0  0
 27 28  1  0  0  0
 27 32  1  0  0  0
 28 29  1  0  0  0
 29 30  1  0  0  0
 30 31  1  0  0  0
 31 32  1  0  0  0
  4 33  1  0  0  0
  4 34  1  0  0  0
  4 35  1  0  0  0
  6 36  1  0  0  0
  7 37  1  0  0  0
  8 38  1  0  0  0
  9 39  1  0  0  0
 17 40  1  0  0  0
 18 41  1  0  0  0
 19 42  1  0  0  0
 20 43  1  0  0  0
 22 44  1  0  0  0
 23 45  1  0  0  0
 25 46  1  0  0  0
 26 47  1  0  0  0
 28 48  1  0  0  0
 28 49  1  0  0  0
 29 50  1  0  0  0
 29 51  1  0  0  0
 31 52  1  0  0  0
 31 53  1  0  0  0
 32 54  1  0  0  0
 32 55  1  0  0  0
M  END
$$$$
