5ehg_ligand
  -I-interpret- 

 47 49  0  0  0  0  0  0  0  0999 V2000
   20.2530   51.0480  -10.0570 C   0  0  0  0  0
   21.4670   51.3160   -9.4430 C   0  0  0  0  0
   22.6190   50.5940   -9.8210 C   0  0  0  0  0
   24.1730   50.8220   -7.9290 C   0  0  0  0  0
   21.3130   49.2980  -11.4440 C   0  0  0  0  0
   20.2270   50.0700  -11.0430 C   0  0  0  0  0
   28.1480   50.4590   -5.0680 C   0  0  0  0  0
   30.0980   56.1550   -0.1260 O   0  0  0  0  0
   25.0830   51.2060   -2.5820 S   0  0  0  0  0
   23.7110   51.0750   -2.8800 O   0  0  0  0  0
   25.6910   50.5120   -1.5110 O   0  0  0  0  0
   27.1100   53.3120   -1.0320 C   0  0  0  0  0
   26.1380   54.9310   -2.6650 C   0  0  0  0  0
   27.1500   55.8590   -2.3400 C   0  0  0  0  0
   29.1780   56.5280   -1.0620 C   0  0  0  0  0
   25.4320   51.1550   -5.2170 C   0  0  0  0  0
   29.2800   57.6480   -1.5610 O   0  0  0  0  0
   25.1230   52.8020   -2.2510 O   0  0  0  0  0
   28.1410   55.5190   -1.3700 C   0  0  0  0  0
   28.1160   54.2460   -0.7240 C   0  0  0  0  0
   27.5410   50.5940   -6.3280 C   0  0  0  0  0
   27.3960   50.6670   -3.8970 C   0  0  0  0  0
   26.0120   51.0160   -3.9500 C   0  0  0  0  0
   26.1350   53.6710   -1.9970 C   0  0  0  0  0
   26.1720   50.9500   -6.4030 C   0  0  0  0  0
   23.9000   50.8830   -9.2730 N   0  0  0  0  0
   23.3160   50.5460   -7.0610 O   0  0  0  0  0
   23.6850   48.8280  -11.1730 N   0  0  0  0  0
   18.7780   49.8840  -11.9060 Cl  0  0  0  0  0
   22.5560   49.5600  -10.8210 C   0  0  0  0  0
   25.5270   51.1400   -7.6620 N   0  0  0  0  0
   19.3486   51.5872   -9.7751 H   0  0  0  0  0
   21.5313   52.0823   -8.6705 H   0  0  0  0  0
   21.2105   48.5247  -12.2053 H   0  0  0  0  0
   29.2027   50.1928   -4.9976 H   0  0  0  0  0
   29.9017   55.2656    0.1773 H   0  0  0  0  0
   27.0808   52.3387   -0.5421 H   0  0  0  0  0
   25.3775   55.1712   -3.4080 H   0  0  0  0  0
   27.1752   56.8332   -2.8283 H   0  0  0  0  0
   24.3796   51.4292   -5.2903 H   0  0  0  0  0
   28.8805   53.9964    0.0118 H   0  0  0  0  0
   28.1173   50.4266   -7.2379 H   0  0  0  0  0
   27.8810   50.5593   -2.9268 H   0  0  0  0  0
   24.6516   51.1483   -9.9095 H   0  0  0  0  0
   24.5787   49.0196  -10.7202 H   0  0  0  0  0
   23.6193   48.0996  -11.8840 H   0  0  0  0  0
   26.0805   51.5327   -8.4235 H   0  0  0  0  0
  2  1  4  0  0  0
  1  6  4  0  0  0
  3  2  4  0  0  0
 26  3  1  0  0  0
  3 30  4  0  0  0
  4 26  1  0  0  0
  4 27  2  0  0  0
 31  4  1  0  0  0
  5  6  4  0  0  0
 30  5  4  0  0  0
  6 29  1  0  0  0
 21  7  4  0  0  0
  7 22  4  0  0  0
 15  8  1  0  0  0
  9 10  2  0  0  0
  9 11  2  0  0  0
  9 18  1  0  0  0
 23  9  1  0  0  0
 12 20  4  0  0  0
 24 12  4  0  0  0
 13 14  4  0  0  0
 24 13  4  0  0  0
 14 19  4  0  0  0
 15 17  2  0  0  0
 19 15  1  0  0  0
 16 23  4  0  0  0
 25 16  4  0  0  0
 18 24  1  0  0  0
 20 19  4  0  0  0
 25 21  4  0  0  0
 23 22  4  0  0  0
 25 31  1  0  0  0
 30 28  1  0  0  0
  1 32  1  0  0  0
  2 33  1  0  0  0
  5 34  1  0  0  0
  7 35  1  0  0  0
  8 36  1  0  0  0
 12 37  1  0  0  0
 13 38  1  0  0  0
 14 39  1  0  0  0
 16 40  1  0  0  0
 20 41  1  0  0  0
 21 42  1  0  0  0
 22 43  1  0  0  0
 26 44  1  0  0  0
 28 45  1  0  0  0
 28 46  1  0  0  0
 31 47  1  0  0  0
M  END
$$$$
