5i8g_ligand
  -I-interpret- 

 51 55  0  0  0  0  0  0  0  0999 V2000
   26.5660   12.3470   14.6420 C   0  0  0  0  0
   26.3530   12.4300   13.1650 C   0  0  0  0  0
   30.8660   14.7020   13.7390 C   0  0  0  0  0
   28.4460   13.6390   12.9540 C   0  0  0  0  0
   28.8360   14.8920   12.4980 C   0  0  0  0  0
   30.0430   15.4290   12.9080 C   0  0  0  0  0
   30.4960   13.4290   14.1880 C   0  0  0  0  0
   29.2650   12.8800   13.8050 C   0  0  0  0  0
   27.1630    9.9360   14.5940 C   0  0  0  0  0
   27.6600   11.3340   14.9610 C   0  0  0  0  0
   25.3880   11.9460   12.6080 O   0  0  0  0  0
   27.2530   13.0970   12.4550 N   0  0  0  0  0
   28.9320   11.5880   14.2400 N   0  0  0  0  0
   31.4690   12.7470   15.0810 C   0  0  0  0  0
   31.1990   12.5750   16.4470 C   0  0  0  0  0
   32.1310   11.9920   17.2560 C   0  0  0  0  0
   33.3440   11.5490   16.7250 C   0  0  0  0  0
   33.6330   11.7040   15.3620 C   0  0  0  0  0
   32.6830   12.3170   14.5400 C   0  0  0  0  0
   34.9840   11.1320   15.1680 C   0  0  0  0  0
   35.4000   10.6860   16.3190 N   0  0  0  0  0
   34.4340   10.9300   17.2840 N   0  0  0  0  0
   34.5660   10.5860   18.6930 C   0  0  0  0  0
   35.7620   11.0060   13.9170 C   0  0  0  0  0
   36.9500   10.2580   13.7840 C   0  0  0  0  0
   37.3330   10.3530   12.5430 N   0  0  0  0  0
   36.3990   11.1350   11.8580 N   0  0  0  0  0
   35.4340   11.5230   12.7080 C   0  0  0  0  0
   36.4410   11.4850   10.4480 C   0  0  0  0  0
   25.6380   12.0315   15.1188 H   0  0  0  0  0
   26.8673   13.3261   15.0143 H   0  0  0  0  0
   31.8207   15.1246   14.0521 H   0  0  0  0  0
   28.1923   15.4507   11.8186 H   0  0  0  0  0
   30.3413   16.4230   12.5749 H   0  0  0  0  0
   26.9979    9.8813   13.5180 H   0  0  0  0  0
   27.9099    9.1979   14.8862 H   0  0  0  0  0
   26.2280    9.7353   15.1170 H   0  0  0  0  0
   27.8714   11.4241   16.0265 H   0  0  0  0  0
   27.0610   13.2267   11.4617 H   0  0  0  0  0
   29.5717   10.8145   14.0585 H   0  0  0  0  0
   30.2468   12.9063   16.8614 H   0  0  0  0  0
   31.9277   11.8719   18.3201 H   0  0  0  0  0
   32.8890   12.4592   13.4791 H   0  0  0  0  0
   34.5028   11.4928   19.2945 H   0  0  0  0  0
   33.7640    9.9041   18.9759 H   0  0  0  0  0
   35.5296   10.1045   18.8594 H   0  0  0  0  0
   37.4548    9.7026   14.5744 H   0  0  0  0  0
   34.5613   12.1321   12.4724 H   0  0  0  0  0
   37.3571   12.0375   10.2392 H   0  0  0  0  0
   36.4193   10.5751    9.8483 H   0  0  0  0  0
   35.5780   12.1040   10.2027 H   0  0  0  0  0
  2  1  1  0  0  0
  1 10  1  0  0  0
  2 11  2  0  0  0
 12  2  1  0  0  0
  6  3  4  0  0  0
  3  7  4  0  0  0
  5  4  4  0  0  0
  4  8  4  0  0  0
  4 12  1  0  0  0
  5  6  4  0  0  0
  7  8  4  0  0  0
  7 14  1  0  0  0
  8 13  1  0  0  0
 10  9  1  0  0  0
 10 13  1  0  0  0
 14 15  4  0  0  0
 14 19  4  0  0  0
 15 16  4  0  0  0
 16 17  4  0  0  0
 17 18  4  0  0  0
 17 22  4  0  0  0
 18 19  4  0  0  0
 18 20  4  0  0  0
 20 21  4  0  0  0
 20 24  1  0  0  0
 21 22  4  0  0  0
 22 23  1  0  0  0
 24 25  4  0  0  0
 24 28  4  0  0  0
 25 26  4  0  0  0
 26 27  4  0  0  0
 27 28  4  0  0  0
 27 29  1  0  0  0
  1 30  1  0  0  0
  1 31  1  0  0  0
  3 32  1  0  0  0
  5 33  1  0  0  0
  6 34  1  0  0  0
  9 35  1  0  0  0
  9 36  1  0  0  0
  9 37  1  0  0  0
 10 38  1  0  0  0
 12 39  1  0  0  0
 13 40  1  0  0  0
 15 41  1  0  0  0
 16 42  1  0  0  0
 19 43  1  0  0  0
 23 44  1  0  0  0
 23 45  1  0  0  0
 23 46  1  0  0  0
 25 47  1  0  0  0
 28 48  1  0  0  0
 29 49  1  0  0  0
 29 50  1  0  0  0
 29 51  1  0  0  0
M  END
$$$$
