5os7_ligand
  -I-interpret- 

 37 38  0  0  0  0  0  0  0  0999 V2000
   -6.4570  168.1480  398.0600 C   0  0  0  0  0
   -4.9170  166.0710  400.8600 C   0  0  0  0  0
   -5.0250  166.8770  399.7190 C   0  0  0  0  0
   -3.8110  167.0560  398.8630 C   0  0  0  0  0
   -3.4970  166.0500  397.9470 C   0  0  0  0  0
   -2.3330  166.1150  397.2020 C   0  0  0  0  0
   -1.4500  167.1790  397.3300 C   0  0  0  0  0
   -0.1740  167.2740  396.5150 C   0  0  0  0  0
   -7.4190  167.4780  397.0800 C   0  0  0  0  0
   -6.2970  167.3460  399.3400 C   0  0  0  0  0
   -7.4180  167.0040  400.0970 C   0  0  0  0  0
   -7.2910  166.1900  401.2080 C   0  0  0  0  0
   -6.0430  165.7240  401.5890 C   0  0  0  0  0
   -3.3110  169.5370  399.9290 Cl  0  0  0  0  0
   -2.9240  168.1450  398.9650 C   0  0  0  0  0
   -1.7570  168.1940  398.2300 C   0  0  0  0  0
    0.6080  166.0460  396.4670 N   0  3  0  0  0
   -6.8400  169.6060  398.3200 C   0  0  0  0  0
   -5.4742  168.1650  397.5889 H   0  0  0  0  0
   -3.9374  165.7134  401.1773 H   0  0  0  0  0
   -4.1748  165.2062  397.8178 H   0  0  0  0  0
   -2.1041  165.3137  396.4994 H   0  0  0  0  0
    0.4509  168.0306  396.9895 H   0  0  0  0  0
   -0.4672  167.5046  395.4908 H   0  0  0  0  0
   -7.0393  166.4904  396.8180 H   0  0  0  0  0
   -8.3998  167.3799  397.5453 H   0  0  0  0  0
   -7.5017  168.0874  396.1801 H   0  0  0  0  0
   -8.4001  167.3807  399.8110 H   0  0  0  0  0
   -8.1740  165.9147  401.7847 H   0  0  0  0  0
   -5.9468  165.0824  402.4649 H   0  0  0  0  0
   -1.0722  169.0327  398.3555 H   0  0  0  0  0
    1.4434  166.1982  395.9019 H   0  0  0  0  0
    0.8801  165.7804  397.4135 H   0  0  0  0  0
    0.0462  165.3026  396.0522 H   0  0  0  0  0
   -6.8158  170.1596  397.3814 H   0  0  0  0  0
   -7.8443  169.6469  398.7416 H   0  0  0  0  0
   -6.1318  170.0468  399.0217 H   0  0  0  0  0
  1  9  1  0  0  0
 10  1  1  0  0  0
  1 18  1  0  0  0
  3  2  4  0  0  0
  2 13  4  0  0  0
  3  4  1  0  0  0
  3 10  4  0  0  0
  4  5  4  0  0  0
  4 15  4  0  0  0
  5  6  4  0  0  0
  6  7  4  0  0  0
  7  8  1  0  0  0
  7 16  4  0  0  0
  8 17  1  0  0  0
 10 11  4  0  0  0
 11 12  4  0  0  0
 12 13  4  0  0  0
 15 14  1  0  0  0
 15 16  4  0  0  0
  1 19  1  0  0  0
  2 20  1  0  0  0
  5 21  1  0  0  0
  6 22  1  0  0  0
  8 23  1  0  0  0
  8 24  1  0  0  0
  9 25  1  0  0  0
  9 26  1  0  0  0
  9 27  1  0  0  0
 11 28  1  0  0  0
 12 29  1  0  0  0
 13 30  1  0  0  0
 16 31  1  0  0  0
 17 32  1  0  0  0
 17 33  1  0  0  0
 17 34  1  0  0  0
 18 35  1  0  0  0
 18 36  1  0  0  0
 18 37  1  0  0  0
M  END
$$$$
