3st5_ligand
  -I-interpret- 

 80 83  0  0  0  0  0  0  0  0999 V2000
   14.4150   20.9620   18.1820 C   0  0  0  0  0
   15.5330   20.4550   18.0540 O   0  0  0  0  0
   13.4320   20.2870   18.8270 O   0  0  0  0  0
   13.7380   18.9240   19.1370 C   0  0  0  0  0
   12.6040   18.3670   20.0140 C   0  0  0  0  0
   11.5310   17.9550   19.0080 C   0  0  0  0  0
   10.8600   19.1430   18.6130 O   0  0  0  0  0
   10.9240   19.3400   17.2130 C   0  0  0  0  0
   11.5020   18.0550   16.5970 C   0  0  0  0  0
   12.2780   17.4740   17.7750 C   0  0  0  0  0
   13.6880   18.0360   17.8950 C   0  0  0  0  0
   10.3420   17.2900   16.2010 O   0  0  0  0  0
   17.7750   24.3590   17.4450 N   0  0  0  0  0
   18.7320   24.7000   18.4920 C   0  0  0  0  0
   18.3590   24.0590   19.8340 C   0  0  0  0  0
   18.3990   22.5230   19.7450 C   0  0  0  0  0
   19.3430   24.4580   20.9400 C   0  0  0  0  0
   16.5180   25.0850   17.4030 C   0  0  0  0  0
   15.3770   24.2200   17.9180 C   0  0  0  0  0
   14.2280   24.9750   18.2860 O   0  0  0  0  0
   15.0010   23.0740   16.9860 C   0  0  0  0  0
   14.1020   22.1690   17.7300 N   0  0  0  0  0
   14.2510   23.5320   15.7290 C   0  0  0  0  0
   12.6510   21.8760   14.6830 C   0  0  0  0  0
   12.3800   20.7480   13.9430 C   0  0  0  0  0
   13.3830   20.1090   13.2160 C   0  0  0  0  0
   14.6790   20.5870   13.3630 C   0  0  0  0  0
   14.9680   21.6900   14.1540 C   0  0  0  0  0
   13.9510   22.3330   14.8340 C   0  0  0  0  0
   18.4630   24.1540   15.9720 S   0  0  0  0  0
   17.3650   24.0040   14.9650 O   0  0  0  0  0
   19.3810   22.9740   16.0730 O   0  0  0  0  0
   19.4330   25.5380   15.5260 C   0  0  0  0  0
   18.8380   26.6510   14.9570 C   0  0  0  0  0
   20.7910   25.5450   15.8140 C   0  0  0  0  0
   19.5700   27.7860   14.6250 C   0  0  0  0  0
   21.5280   26.6990   15.5300 C   0  0  0  0  0
   20.9330   27.8080   14.9370 C   0  0  0  0  0
   21.5970   28.9600   14.6630 O   0  0  0  0  0
   22.9720   28.8560   14.9670 C   0  0  0  0  0
   14.7256   18.9149   19.5982 H   0  0  0  0  0
   12.2381   19.1002   20.7328 H   0  0  0  0  0
   12.9319   17.5331   20.6346 H   0  0  0  0  0
   10.8489   17.2086   19.4152 H   0  0  0  0  0
   11.5549   20.1964   16.9750 H   0  0  0  0  0
    9.9327   19.5461   16.8094 H   0  0  0  0  0
   12.1521   18.1275   15.7251 H   0  0  0  0  0
   12.3531   16.3932   17.6554 H   0  0  0  0  0
   14.4106   17.2247   17.9827 H   0  0  0  0  0
   13.9391   18.6160   17.0070 H   0  0  0  0  0
   10.6256   16.4636   15.8031 H   0  0  0  0  0
   18.7318   25.7828   18.6173 H   0  0  0  0  0
   19.7124   24.3277   18.1949 H   0  0  0  0  0
   17.3544   24.4115   20.0674 H   0  0  0  0  0
   17.6908   22.1856   18.9882 H   0  0  0  0  0
   19.4044   22.2022   19.4724 H   0  0  0  0  0
   18.1300   22.0972   20.7117 H   0  0  0  0  0
   20.3463   24.1304   20.6675 H   0  0  0  0  0
   19.3332   25.5413   21.0598 H   0  0  0  0  0
   19.0467   23.9849   21.8762 H   0  0  0  0  0
   16.3083   25.3653   16.3707 H   0  0  0  0  0
   16.6015   25.9693   18.0348 H   0  0  0  0  0
   15.7758   23.7648   18.8246 H   0  0  0  0  0
   13.5436   24.3805   18.6019 H   0  0  0  0  0
   15.9272   22.5978   16.6642 H   0  0  0  0  0
   13.1554   22.5020   17.9127 H   0  0  0  0  0
   14.8700   24.2424   15.1811 H   0  0  0  0  0
   13.3132   24.0035   16.0229 H   0  0  0  0  0
   11.8323   22.4176   15.1569 H   0  0  0  0  0
   11.3661   20.3483   13.9251 H   0  0  0  0  0
   13.1595   19.2685   12.5589 H   0  0  0  0  0
   15.4921   20.0813   12.8422 H   0  0  0  0  0
   15.9940   22.0482   14.2387 H   0  0  0  0  0
   17.7654   26.6374   14.7637 H   0  0  0  0  0
   21.2721   24.6704   16.2518 H   0  0  0  0  0
   19.0942   28.6354   14.1349 H   0  0  0  0  0
   22.5890   26.7302   15.7780 H   0  0  0  0  0
   23.0926   28.6340   16.0273 H   0  0  0  0  0
   23.4143   28.0553   14.3742 H   0  0  0  0  0
   23.4668   29.7987   14.7333 H   0  0  0  0  0
  1  2  2  0  0  0
  1  3  1  0  0  0
 22  1  1  0  0  0
  3  4  1  0  0  0
  4  5  1  0  0  0
  4 11  1  0  0  0
  5  6  1  0  0  0
  6  7  1  0  0  0
 10  6  1  0  0  0
  7  8  1  0  0  0
  9  8  1  0  0  0
 10  9  1  0  0  0
  9 12  1  0  0  0
 11 10  1  0  0  0
 13 14  1  0  0  0
 18 13  1  0  0  0
 13 30  1  0  0  0
 14 15  1  0  0  0
 15 16  1  0  0  0
 15 17  1  0  0  0
 19 18  1  0  0  0
 19 20  1  0  0  0
 21 19  1  0  0  0
 21 22  1  0  0  0
 23 21  1  0  0  0
 29 23  1  0  0  0
 24 25  4  0  0  0
 24 29  4  0  0  0
 25 26  4  0  0  0
 26 27  4  0  0  0
 27 28  4  0  0  0
 28 29  4  0  0  0
 30 31  2  0  0  0
 30 32  2  0  0  0
 30 33  1  0  0  0
 33 34  4  0  0  0
 33 35  4  0  0  0
 34 36  4  0  0  0
 35 37  4  0  0  0
 36 38  4  0  0  0
 37 38  4  0  0  0
 38 39  1  0  0  0
 39 40  1  0  0  0
  4 41  1  0  0  0
  5 42  1  0  0  0
  5 43  1  0  0  0
  6 44  1  0  0  0
  8 45  1  0  0  0
  8 46  1  0  0  0
  9 47  1  0  0  0
 10 48  1  0  0  0
 11 49  1  0  0  0
 11 50  1  0  0  0
 12 51  1  0  0  0
 14 52  1  0  0  0
 14 53  1  0  0  0
 15 54  1  0  0  0
 16 55  1  0  0  0
 16 56  1  0  0  0
 16 57  1  0  0  0
 17 58  1  0  0  0
 17 59  1  0  0  0
 17 60  1  0  0  0
 18 61  1  0  0  0
 18 62  1  0  0  0
 19 63  1  0  0  0
 20 64  1  0  0  0
 21 65  1  0  0  0
 22 66  1  0  0  0
 23 67  1  0  0  0
 23 68  1  0  0  0
 24 69  1  0  0  0
 25 70  1  0  0  0
 26 71  1  0  0  0
 27 72  1  0  0  0
 28 73  1  0  0  0
 34 74  1  0  0  0
 35 75  1  0  0  0
 36 76  1  0  0  0
 37 77  1  0  0  0
 40 78  1  0  0  0
 40 79  1  0  0  0
 40 80  1  0  0  0
M  END
$$$$
