6awo_ligand
  -I-interpret- 

 38 40  0  0  0  0  0  0  0  0999 V2000
   28.0700  181.9560  143.4580 Cl  0  0  0  0  0
   29.7180  182.6310  143.6170 C   0  0  0  0  0
   30.0670  183.3610  144.7440 C   0  0  0  0  0
   28.8730  183.6290  146.0440 Cl  0  0  0  0  0
   30.6540  182.4280  142.6130 C   0  0  0  0  0
   31.9320  182.9500  142.7410 C   0  0  0  0  0
   32.2780  183.6760  143.8700 C   0  0  0  0  0
   31.3440  183.8840  144.8700 C   0  0  0  0  0
   33.7150  184.2740  144.0260 C   0  0  0  0  0
   34.7980  183.2140  143.4860 C   0  0  0  0  0
   35.0650  182.0390  144.1840 C   0  0  0  0  0
   36.0120  181.1400  143.6950 C   0  0  0  0  0
   36.7000  181.4190  142.5030 C   0  0  0  0  0
   36.4380  182.5950  141.8050 C   0  0  0  0  0
   35.4910  183.4940  142.2890 C   0  0  0  0  0
   35.1830  184.8390  141.4980 C   0  0  0  0  0
   35.0110  184.4820  140.0620 N   0  3  0  0  0
   33.7790  183.7340  139.8830 C   0  0  0  0  0
   33.9960  185.6780  141.9180 C   0  0  0  0  0
   33.6990  185.6350  143.4050 C   0  0  0  0  0
   30.3845  181.8582  141.7237 H   0  0  0  0  0
   32.6665  182.7891  141.9519 H   0  0  0  0  0
   31.6128  184.4589  145.7562 H   0  0  0  0  0
   34.0260  184.4336  145.0584 H   0  0  0  0  0
   34.5345  181.8224  145.1112 H   0  0  0  0  0
   36.2188  180.2185  144.2392 H   0  0  0  0  0
   37.4399  180.7142  142.1238 H   0  0  0  0  0
   36.9736  182.8117  140.8807 H   0  0  0  0  0
   36.0351  185.4793  141.7261 H   0  0  0  0  0
   35.7993  183.9090  139.7609 H   0  0  0  0  0
   34.9701  185.3359  139.5055 H   0  0  0  0  0
   33.8194  182.8220  140.4786 H   0  0  0  0  0
   32.9351  184.3435  140.2062 H   0  0  0  0  0
   33.6611  183.4771  138.8303 H   0  0  0  0  0
   33.1218  185.2786  141.4038 H   0  0  0  0  0
   34.2284  186.7128  141.6663 H   0  0  0  0  0
   34.4853  186.2091  143.8952 H   0  0  0  0  0
   32.6877  186.0216  143.5308 H   0  0  0  0  0
  1  2  1  0  0  0
  2  3  4  0  0  0
  2  5  4  0  0  0
  3  4  1  0  0  0
  3  8  4  0  0  0
  5  6  4  0  0  0
  6  7  4  0  0  0
  7  8  4  0  0  0
  7  9  1  0  0  0
  9 10  1  0  0  0
  9 20  1  0  0  0
 10 11  4  0  0  0
 10 15  4  0  0  0
 11 12  4  0  0  0
 12 13  4  0  0  0
 13 14  4  0  0  0
 14 15  4  0  0  0
 15 16  1  0  0  0
 16 17  1  0  0  0
 16 19  1  0  0  0
 17 18  1  0  0  0
 19 20  1  0  0  0
  5 21  1  0  0  0
  6 22  1  0  0  0
  8 23  1  0  0  0
  9 24  1  0  0  0
 11 25  1  0  0  0
 12 26  1  0  0  0
 13 27  1  0  0  0
 14 28  1  0  0  0
 16 29  1  0  0  0
 17 30  1  0  0  0
 17 31  1  0  0  0
 18 32  1  0  0  0
 18 33  1  0  0  0
 18 34  1  0  0  0
 19 35  1  0  0  0
 19 36  1  0  0  0
 20 37  1  0  0  0
 20 38  1  0  0  0
M  END
$$$$
