2flh_ligand
  -I-interpret- 

 28 29  0  0  0  0  0  0  0  0999 V2000
   30.8910  -10.3990    0.7040 O   0  0  0  0  0
   31.0110  -11.5720    1.6260 C   0  0  0  0  0
   29.6830  -12.2650    1.3600 C   0  0  0  0  0
   28.4190  -11.5360    1.6340 C   0  0  0  0  0
   29.6840  -13.5800    0.7910 C   0  0  0  0  0
   28.4470  -14.3150    0.4180 C   0  0  0  0  0
   28.6100  -15.7310    0.5270 N   0  0  0  0  0
   29.3610  -16.4190   -0.3910 C   0  0  0  0  0
   29.3790  -17.8010   -0.4270 C   0  0  0  0  0
   28.6880  -18.7740    0.3090 N   0  0  0  0  0
   30.1310  -18.3780   -1.3870 C   0  0  0  0  0
   29.9680  -19.7410   -1.2860 N   0  0  0  0  0
   29.1030  -19.9090   -0.2990 C   0  0  0  0  0
   30.9790  -17.7570   -2.2520 N   0  0  0  0  0
   30.8580  -16.4220   -2.1670 C   0  0  0  0  0
   30.1250  -15.7450   -1.2610 N   0  0  0  0  0
   31.6821   -9.8592    0.7702 H   0  0  0  0  0
   31.1751  -11.3053    2.6701 H   0  0  0  0  0
   31.8857  -12.1964    1.4439 H   0  0  0  0  0
   27.8683  -11.4034    0.7027 H   0  0  0  0  0
   27.8148  -12.1103    2.3363 H   0  0  0  0  0
   28.6492  -10.5610    2.0635 H   0  0  0  0  0
   30.6440  -14.0679    0.6225 H   0  0  0  0  0
   28.2106  -14.0786   -0.6195 H   0  0  0  0  0
   27.6521  -14.0106    1.0988 H   0  0  0  0  0
   28.1639  -16.2338    1.2942 H   0  0  0  0  0
   28.7490  -20.8945    0.0035 H   0  0  0  0  0
   31.4047  -15.8297   -2.9007 H   0  0  0  0  0
  1  2  1  0  0  0
  2  3  1  0  0  0
  3  4  1  0  0  0
  3  5  2  0  0  0
  5  6  1  0  0  0
  6  7  1  0  0  0
  7  8  1  0  0  0
  8  9  4  0  0  0
  8 16  4  0  0  0
  9 10  4  0  0  0
  9 11  4  0  0  0
 10 13  4  0  0  0
 11 12  4  0  0  0
 11 14  4  0  0  0
 12 13  4  0  0  0
 14 15  4  0  0  0
 15 16  4  0  0  0
  1 17  1  0  0  0
  2 18  1  0  0  0
  2 19  1  0  0  0
  4 20  1  0  0  0
  4 21  1  0  0  0
  4 22  1  0  0  0
  5 23  1  0  0  0
  6 24  1  0  0  0
  6 25  1  0  0  0
  7 26  1  0  0  0
 13 27  1  0  0  0
 15 28  1  0  0  0
M  END
$$$$
