4aa7_ligand
  -I-interpret- 

 49 51  0  0  0  0  0  0  0  0999 V2000
   45.1510    7.4410   15.7540 C   0  0  0  0  0
   45.9100    8.6050   15.3170 O   0  0  0  0  0
   46.2320    9.4270   16.3590 C   0  0  0  0  0
   46.1030    8.9770   17.6800 C   0  0  0  0  0
   46.4520    9.8220   18.7770 C   0  0  0  0  0
   46.3360    9.3870   20.1220 O   0  0  0  0  0
   45.8610    8.0690   20.4100 C   0  0  0  0  0
   46.9010   11.1510   18.5230 C   0  0  0  0  0
   47.0230   11.5750   17.1690 C   0  0  0  0  0
   46.6480   10.7440   16.0850 C   0  0  0  0  0
   46.7730   11.1960   14.7050 N   0  0  0  0  0
   46.7670   12.4960   14.2750 C   0  0  0  0  0
   46.5770   13.5000   14.9860 O   0  0  0  0  0
   47.0020   12.7060   12.8030 C   0  0  0  0  0
   47.4190   12.2620   19.8660 S   0  0  0  0  0
   46.3790   12.4180   20.8600 O   0  0  0  0  0
   48.0180   13.3480   19.1800 O   0  0  0  0  0
   48.6620   11.3850   20.5190 N   0  0  0  0  0
   48.6600   10.8020   21.8950 C   0  0  0  0  0
   49.3000   11.6310   23.0080 C   0  0  0  0  0
   49.2850    9.3960   21.6870 C   0  0  0  0  0
   49.9910    9.4990   20.3560 C   0  0  0  0  0
   50.8690    8.6010   19.7530 C   0  0  0  0  0
   51.3950    8.9680   18.5310 C   0  0  0  0  0
   51.0730   10.1750   17.9130 C   0  0  0  0  0
   50.1860   11.0740   18.4910 C   0  0  0  0  0
   49.6450   10.7500   19.7540 C   0  0  0  0  0
   45.7437    6.8696   16.4683 H   0  0  0  0  0
   44.2258    7.7691   16.2278 H   0  0  0  0  0
   44.9175    6.8164   14.8917 H   0  0  0  0  0
   45.7320    7.9703   17.8723 H   0  0  0  0  0
   44.8552    7.9505   20.0069 H   0  0  0  0  0
   46.5259    7.3365   19.9524 H   0  0  0  0  0
   45.8411    7.9191   21.4895 H   0  0  0  0  0
   47.4171   12.5696   16.9604 H   0  0  0  0  0
   46.8747   10.4747   13.9910 H   0  0  0  0  0
   46.1365   13.2037   12.3656 H   0  0  0  0  0
   47.8882   13.3249   12.6625 H   0  0  0  0  0
   47.1509   11.7409   12.3188 H   0  0  0  0  0
   47.6473   10.7687   22.2969 H   0  0  0  0  0
   50.3484   11.8096   22.7693 H   0  0  0  0  0
   48.7784   12.5841   23.0951 H   0  0  0  0  0
   49.2280   11.0885   23.9506 H   0  0  0  0  0
   48.5338    8.6062   21.6946 H   0  0  0  0  0
   49.9654    9.1244   22.4941 H   0  0  0  0  0
   51.1284    7.6530   20.2243 H   0  0  0  0  0
   52.0868    8.2898   18.0315 H   0  0  0  0  0
   51.5281   10.4193   16.9532 H   0  0  0  0  0
   49.9160   12.0010   17.9851 H   0  0  0  0  0
  1  2  1  0  0  0
  2  3  1  0  0  0
  3  4  4  0  0  0
  3 10  4  0  0  0
  4  5  4  0  0  0
  5  6  1  0  0  0
  5  8  4  0  0  0
  6  7  1  0  0  0
  8  9  4  0  0  0
  8 15  1  0  0  0
  9 10  4  0  0  0
 10 11  1  0  0  0
 11 12  1  0  0  0
 12 13  2  0  0  0
 12 14  1  0  0  0
 15 16  2  0  0  0
 15 17  2  0  0  0
 15 18  1  0  0  0
 18 19  1  0  0  0
 18 27  1  0  0  0
 19 20  1  0  0  0
 19 21  1  0  0  0
 21 22  1  0  0  0
 22 23  4  0  0  0
 22 27  4  0  0  0
 23 24  4  0  0  0
 24 25  4  0  0  0
 25 26  4  0  0  0
 26 27  4  0  0  0
  1 28  1  0  0  0
  1 29  1  0  0  0
  1 30  1  0  0  0
  4 31  1  0  0  0
  7 32  1  0  0  0
  7 33  1  0  0  0
  7 34  1  0  0  0
  9 35  1  0  0  0
 11 36  1  0  0  0
 14 37  1  0  0  0
 14 38  1  0  0  0
 14 39  1  0  0  0
 19 40  1  0  0  0
 20 41  1  0  0  0
 20 42  1  0  0  0
 20 43  1  0  0  0
 21 44  1  0  0  0
 21 45  1  0  0  0
 23 46  1  0  0  0
 24 47  1  0  0  0
 25 48  1  0  0  0
 26 49  1  0  0  0
M  END
$$$$
