6iez_ligand
  -I-interpret- 

 62 64  0  0  0  0  0  0  0  0999 V2000
  -29.8780    6.3370   -7.4620 C   0  0  0  0  0
  -36.2990    3.0660   -5.8190 C   0  0  0  0  0
  -36.1300    1.5240   -5.6980 C   0  0  0  0  0
  -32.1320    0.5970   -4.5750 C   0  0  0  0  0
  -34.2980    1.4570   -3.9510 C   0  0  0  0  0
  -34.7390    1.1840   -5.2690 C   0  0  0  0  0
  -32.6380    0.3720   -5.8610 C   0  0  0  0  0
  -26.3660    5.4830   -6.3350 C   0  0  0  0  0
  -33.9230    0.6580   -6.2270 N   0  0  0  0  0
  -34.0600    4.0040   -6.5270 C   0  0  0  0  0
  -33.1850    4.5060   -7.5220 C   0  0  0  0  0
  -29.3580    5.8420   -6.2760 C   0  0  0  0  0
  -31.2870    4.5000   -5.8960 C   0  0  0  0  0
  -27.7520    7.8420   -6.2450 O   0  0  0  0  0
  -27.7910    6.4660   -5.7070 S   0  0  0  0  0
  -27.7530    6.2100   -4.2580 O   0  0  0  0  0
  -26.3570    5.6100   -7.8780 C   0  0  0  0  0
  -27.1740    4.5990   -8.4550 O   0  0  0  0  0
  -31.1480    5.8860   -7.8800 C   0  0  0  0  0
  -31.8490    4.9570   -7.0970 C   0  0  0  0  0
  -30.0090    4.9160   -5.4470 C   0  0  0  0  0
  -33.6530    4.6650   -8.8530 C   0  0  0  0  0
  -34.9600    4.2850   -9.2330 C   0  0  0  0  0
  -35.8170    3.7520   -8.2330 C   0  0  0  0  0
  -37.2340    3.3660   -8.6050 C   0  0  0  0  0
  -37.2660    1.9200   -9.0650 C   0  0  0  0  0
  -38.7250    1.6000   -9.3900 C   0  0  0  0  0
  -38.8670    0.0920   -9.2450 C   0  0  0  0  0
  -40.2650   -0.2830   -9.7520 C   0  0  0  0  0
  -35.3720    3.6190   -6.8880 C   0  0  0  0  0
  -32.9690    1.1510   -3.5860 C   0  0  0  0  0
  -29.3186    7.0581   -8.0580 H   0  0  0  0  0
  -36.0515    3.5261   -4.8623 H   0  0  0  0  0
  -37.3300    3.2894   -6.0934 H   0  0  0  0  0
  -36.3232    1.0685   -6.6692 H   0  0  0  0  0
  -36.8327    1.1472   -4.9548 H   0  0  0  0  0
  -31.0977    0.3453   -4.3405 H   0  0  0  0  0
  -34.9792    1.8998   -3.2244 H   0  0  0  0  0
  -31.9710   -0.0542   -6.6104 H   0  0  0  0  0
  -26.4635    4.4385   -6.0391 H   0  0  0  0  0
  -25.4314    5.8563   -5.9163 H   0  0  0  0  0
  -33.7252    3.9154   -5.4935 H   0  0  0  0  0
  -31.8547    3.7983   -5.2849 H   0  0  0  0  0
  -25.3356    5.4956   -8.2409 H   0  0  0  0  0
  -26.7459    6.5887   -8.1592 H   0  0  0  0  0
  -27.1618    4.6862   -9.4110 H   0  0  0  0  0
  -31.5826    6.2581   -8.8078 H   0  0  0  0  0
  -29.5639    4.5436   -4.5244 H   0  0  0  0  0
  -32.9860    5.0918   -9.6021 H   0  0  0  0  0
  -35.3004    4.3974  -10.2624 H   0  0  0  0  0
  -37.5839    4.0098   -9.4120 H   0  0  0  0  0
  -37.8806    3.4830   -7.7353 H   0  0  0  0  0
  -36.8840    1.2554   -8.2900 H   0  0  0  0  0
  -36.6306    1.7743   -9.9386 H   0  0  0  0  0
  -38.9853    1.9257  -10.3971 H   0  0  0  0  0
  -39.4033    2.1264   -8.7185 H   0  0  0  0  0
  -38.7434   -0.2067   -8.2040 H   0  0  0  0  0
  -38.0987   -0.4230   -9.8217 H   0  0  0  0  0
  -41.0171    0.2326   -9.1548 H   0  0  0  0  0
  -40.3629    0.0132  -10.7964 H   0  0  0  0  0
  -40.4052   -1.3603   -9.6638 H   0  0  0  0  0
  -32.6037    1.3365   -2.5759 H   0  0  0  0  0
 12  1  4  0  0  0
  1 19  4  0  0  0
  2  3  1  0  0  0
 30  2  1  0  0  0
  3  6  1  0  0  0
  7  4  4  0  0  0
 31  4  4  0  0  0
  6  5  4  0  0  0
  5 31  4  0  0  0
  6  9  4  0  0  0
  9  7  4  0  0  0
 15  8  1  0  0  0
  8 17  1  0  0  0
 11 10  4  0  0  0
 10 30  4  0  0  0
 20 11  1  0  0  0
 11 22  4  0  0  0
 12 15  1  0  0  0
 21 12  4  0  0  0
 13 20  4  0  0  0
 13 21  4  0  0  0
 15 14  2  0  0  0
 15 16  2  0  0  0
 17 18  1  0  0  0
 19 20  4  0  0  0
 22 23  4  0  0  0
 23 24  4  0  0  0
 24 25  1  0  0  0
 24 30  4  0  0  0
 25 26  1  0  0  0
 26 27  1  0  0  0
 27 28  1  0  0  0
 28 29  1  0  0  0
  1 32  1  0  0  0
  2 33  1  0  0  0
  2 34  1  0  0  0
  3 35  1  0  0  0
  3 36  1  0  0  0
  4 37  1  0  0  0
  5 38  1  0  0  0
  7 39  1  0  0  0
  8 40  1  0  0  0
  8 41  1  0  0  0
 10 42  1  0  0  0
 13 43  1  0  0  0
 17 44  1  0  0  0
 17 45  1  0  0  0
 18 46  1  0  0  0
 19 47  1  0  0  0
 21 48  1  0  0  0
 22 49  1  0  0  0
 23 50  1  0  0  0
 25 51  1  0  0  0
 25 52  1  0  0  0
 26 53  1  0  0  0
 26 54  1  0  0  0
 27 55  1  0  0  0
 27 56  1  0  0  0
 28 57  1  0  0  0
 28 58  1  0  0  0
 29 59  1  0  0  0
 29 60  1  0  0  0
 29 61  1  0  0  0
 31 62  1  0  0  0
M  END
$$$$
