### 
### Created by X-TOOL on Mon Sep 10 21:12:50 2018
### 

@<TRIPOS>MOLECULE
1gww_ligand
   36    37     1     0     0
SMALL
GAST_HUCK


@<TRIPOS>ATOM
      1 N1          2.6080   13.5650   43.2950 N.am      1 UDP        -0.1592
      2 C2          2.7140   14.5600   42.3200 C.2       1 UDP         0.3328
      3 N3          2.2930   15.8320   42.6960 N.am      1 UDP        -0.1865
      4 C4          1.7730   16.2050   43.9610 C.2       1 UDP         0.1822
      5 C5          1.6880   15.1390   44.9300 C.2       1 UDP         0.0062
      6 C6          2.0930   13.8960   44.5790 C.2       1 UDP         0.0591
      7 O2          3.1550   14.3350   41.1860 O.2       1 UDP        -0.3815
      8 O4          1.4470   17.3780   44.1270 O.2       1 UDP        -0.4124
      9 C1          3.0420   12.1610   42.9570 C.3       1 UDP         0.2059
     10 C2          4.5590   11.9670   42.7550 C.3       1 UDP         0.1387
     11 O2          4.8260   10.9340   41.8180 O.3       1 UDP        -0.3836
     12 C3          5.0140   11.6420   44.1740 C.3       1 UDP         0.1149
     13 C4          3.8930   10.7030   44.6580 C.3       1 UDP         0.1189
     14 O4          2.6880   11.2560   44.0270 O.3       1 UDP        -0.3363
     15 O3          6.2730   10.9660   44.0870 O.3       1 UDP        -0.3864
     16 C5          3.6750   10.6900   46.2030 C.3       1 UDP         0.1132
     17 O5          4.1010   11.9470   46.7110 O.3       1 UDP        -0.2436
     18 PA          5.3630   12.4090   47.5200 P.3       1 UDP         0.3276
     19 O1A         6.5680   11.9040   46.8120 O.co2     1 UDP        -0.5556
     20 O2A         5.2500   13.9040   47.7020 O.co2     1 UDP        -0.5556
     21 O3A         5.1650   11.5990   48.8650 O.3       1 UDP        -0.1548
     22 PB          6.2230   11.3600   50.0360 P.3       1 UDP         0.2069
     23 O1B         7.2160   10.2270   49.4490 O.co2     1 UDP        -0.5891
     24 O2B         5.3810   10.8690   51.1590 O.co2     1 UDP        -0.5891
     25 O3B         7.1240   12.5210   50.2320 O.co2     1 UDP        -0.5891
     26 H1          2.3642   16.5531   42.0068 H         1 UDP         0.2259
     27 H2          1.3032   15.3320   45.9303 H         1 UDP         0.0258
     28 H3          2.0204   13.1036   45.3225 H         1 UDP         0.1178
     29 H4          2.5232   11.8647   42.0334 H         1 UDP         0.0997
     30 H5          5.0327   12.8944   42.4006 H         1 UDP         0.0676
     31 H6          4.4351   11.1579   40.9816 H         1 UDP         0.2101
     32 H7          5.0983   12.5376   44.8071 H         1 UDP         0.0648
     33 H8          4.0886    9.6764   44.3147 H         1 UDP         0.0651
     34 H9          6.5118   10.6323   44.9437 H         1 UDP         0.2100
     35 H10         4.2670    9.8822   46.6579 H         1 UDP         0.0648
     36 H11         2.6096   10.5362   46.4296 H         1 UDP         0.0648
@<TRIPOS>BOND
     1    1    2 am 
     2    1    6 1  
     3    1    9 1  
     4    2    3 am 
     5    2    7 2  
     6    3    4 am 
     7    4    5 1  
     8    4    8 2  
     9    5    6 2  
    10    9   10 1  
    11    9   14 1  
    12   10   11 1  
    13   10   12 1  
    14   12   13 1  
    15   12   15 1  
    16   13   14 1  
    17   13   16 1  
    18   16   17 1  
    19   17   18 1  
    20   18   19 ar 
    21   18   20 ar 
    22   18   21 1  
    23   21   22 1  
    24   22   23 ar 
    25   22   24 ar 
    26   22   25 ar 
    27    3   26 1  
    28    5   27 1  
    29    6   28 1  
    30    9   29 1  
    31   10   30 1  
    32   11   31 1  
    33   12   32 1  
    34   13   33 1  
    35   15   34 1  
    36   16   35 1  
    37   16   36 1  
@<TRIPOS>SUBSTRUCTURE
     1 UDP         1

