1gww_ligand
  -I-interpret- 

 39 40  0  0  0  0  0  0  0  0999 V2000
    2.6080   13.5650   43.2950 N   0  0  0  0  0
    2.7140   14.5600   42.3200 C   0  0  0  0  0
    2.2930   15.8320   42.6960 N   0  0  0  0  0
    1.7730   16.2050   43.9610 C   0  0  0  0  0
    1.6880   15.1390   44.9300 C   0  0  0  0  0
    2.0930   13.8960   44.5790 C   0  0  0  0  0
    3.1550   14.3350   41.1860 O   0  0  0  0  0
    1.4470   17.3780   44.1270 O   0  0  0  0  0
    3.0420   12.1610   42.9570 C   0  0  0  0  0
    4.5590   11.9670   42.7550 C   0  0  0  0  0
    4.8260   10.9340   41.8180 O   0  0  0  0  0
    5.0140   11.6420   44.1740 C   0  0  0  0  0
    3.8930   10.7030   44.6580 C   0  0  0  0  0
    2.6880   11.2560   44.0270 O   0  0  0  0  0
    6.2730   10.9660   44.0870 O   0  0  0  0  0
    3.6750   10.6900   46.2030 C   0  0  0  0  0
    4.1010   11.9470   46.7110 O   0  0  0  0  0
    5.3630   12.4090   47.5200 P   0  0  0  0  0
    6.5680   11.9040   46.8120 O   0  0  0  0  0
    5.2500   13.9040   47.7020 O   0  0  0  0  0
    5.1650   11.5990   48.8650 O   0  0  0  0  0
    6.2230   11.3600   50.0360 P   0  0  0  0  0
    7.2160   10.2270   49.4490 O   0  0  0  0  0
    5.3810   10.8690   51.1590 O   0  0  0  0  0
    7.1240   12.5210   50.2320 O   0  0  0  0  0
    2.3656   16.5675   41.9930 H   0  0  0  0  0
    1.3028   15.3322   45.9312 H   0  0  0  0  0
    2.0203   13.1029   45.3232 H   0  0  0  0  0
    2.5326   11.9584   42.0149 H   0  0  0  0  0
    5.0822   12.8248   42.3324 H   0  0  0  0  0
    5.7752   10.8363   41.7130 H   0  0  0  0  0
    5.1579   12.4943   44.8381 H   0  0  0  0  0
    4.1380    9.6730   44.3987 H   0  0  0  0  0
    6.5809   10.7504   44.9704 H   0  0  0  0  0
    4.2478    9.8829   46.6597 H   0  0  0  0  0
    2.6232   10.5239   46.4359 H   0  0  0  0  0
    4.4364   14.1078   48.1691 H   0  0  0  0  0
    6.7198    9.4216   49.2858 H   0  0  0  0  0
    4.8621   10.1173   50.8635 H   0  0  0  0  0
  1  2  1  0  0  0
  1  6  1  0  0  0
  1  9  1  0  0  0
  2  3  1  0  0  0
  2  7  2  0  0  0
  3  4  1  0  0  0
  4  5  1  0  0  0
  4  8  2  0  0  0
  5  6  2  0  0  0
  9 10  1  0  0  0
  9 14  1  0  0  0
 10 11  1  0  0  0
 10 12  1  0  0  0
 12 13  1  0  0  0
 12 15  1  0  0  0
 13 14  1  0  0  0
 13 16  1  0  0  0
 16 17  1  0  0  0
 17 18  1  0  0  0
 18 19  2  0  0  0
 18 20  1  0  0  0
 18 21  1  0  0  0
 21 22  1  0  0  0
 22 23  1  0  0  0
 22 24  1  0  0  0
 22 25  2  0  0  0
  3 26  1  0  0  0
  5 27  1  0  0  0
  6 28  1  0  0  0
  9 29  1  0  0  0
 10 30  1  0  0  0
 11 31  1  0  0  0
 12 32  1  0  0  0
 13 33  1  0  0  0
 15 34  1  0  0  0
 16 35  1  0  0  0
 16 36  1  0  0  0
 20 37  1  0  0  0
 23 38  1  0  0  0
 24 39  1  0  0  0
M  END
$$$$
