### 
### Created by X-TOOL on Mon Sep 10 21:12:50 2018
### 

@<TRIPOS>MOLECULE
1q6m_ligand
   65    69     1     0     0
SMALL
GAST_HUCK


@<TRIPOS>ATOM
      1 C32         0.3450   71.4690   69.2010 C.3       1 P27         0.0075
      2 C33         1.1890   72.4930   68.3710 C.ar      1 P27        -0.0168
      3 C4A         0.5840   73.2230   67.3330 C.ar      1 P27        -0.0290
      4 C4B         2.6040   72.6640   68.5580 C.ar      1 P27        -0.0290
      5 C5A         1.3100   74.0850   66.5000 C.ar      1 P27        -0.0385
      6 C5B         3.3530   73.5340   67.7150 C.ar      1 P27        -0.0385
      7 C36         2.7110   74.2470   66.6740 C.ar      1 P27         0.0219
      8 C37         3.4640   75.1940   65.7870 C.3       1 P27         0.2931
      9 F38         4.5420   75.6280   66.4430 F         1 P27        -0.2419
     10 F39         2.6770   76.2610   65.6180 F         1 P27        -0.2419
     11 P40         3.9210   74.6910   64.2910 P.3       1 P27         0.0966
     12 O41         2.6940   74.1580   63.4880 O.co2     1 P27        -0.5668
     13 O42         4.9390   73.5830   64.3840 O.co2     1 P27        -0.5668
     14 O43         4.4690   75.9120   63.5730 O.co2     1 P27        -0.5668
     15 C1         -0.1280   72.0310   70.6560 C.3       1 P27         0.1100
     16 C12        -0.9730   73.3880   70.5750 C.3       1 P27         0.0075
     17 C13        -2.1400   73.3220   69.5640 C.ar      1 P27        -0.0168
     18 C1A        -2.2780   74.3750   68.6090 C.ar      1 P27        -0.0290
     19 C1B        -3.1460   72.3060   69.5650 C.ar      1 P27        -0.0290
     20 C2A        -3.3500   74.4380   67.6960 C.ar      1 P27        -0.0385
     21 C2B        -4.2410   72.3650   68.6320 C.ar      1 P27        -0.0385
     22 C16        -4.3400   73.4560   67.6890 C.ar      1 P27         0.0219
     23 C17        -5.5170   73.5620   66.7090 C.3       1 P27         0.2931
     24 F18        -6.2100   72.4160   66.6900 F         1 P27        -0.2419
     25 F19        -5.0490   73.7150   65.4950 F         1 P27        -0.2419
     26 P20        -6.5570   74.7640   67.0440 P.3       1 P27         0.0966
     27 O21        -5.9560   76.1320   66.6610 O.co2     1 P27        -0.5668
     28 O22        -6.8260   74.7660   68.5370 O.co2     1 P27        -0.5668
     29 O23        -7.8300   74.5380   66.2740 O.co2     1 P27        -0.5668
     30 C51         1.1500   72.3360   71.5740 C.ar      1 P27        -0.0182
     31 C6A         2.0460   71.3100   71.9610 C.ar      1 P27        -0.0041
     32 C6B         1.4120   73.6580   72.0280 C.ar      1 P27        -0.0408
     33 C55         3.4070   72.9260   73.1980 C.ar      1 P27         0.2008
     34 C53         3.1630   71.6020   72.7640 C.ar      1 P27         0.1959
     35 C54         2.5430   73.9620   72.8410 C.ar      1 P27         0.0029
     36 F56         3.9900   70.6220   73.1120 F         1 P27        -0.1755
     37 F57         4.4640   73.2140   73.9500 F         1 P27        -0.1556
     38 N61        -0.9550   70.8680   71.1870 N.pl3     1 P27        -0.1820
     39 N62        -1.5100   69.7660   70.5690 N.2       1 P27        -0.0834
     40 N63        -2.0880   69.1620   71.5900 N.2       1 P27        -0.2001
     41 C7A        -1.9990   69.7030   72.8310 C.ar      1 P27         0.0753
     42 C7B        -1.2130   70.9110   72.6310 C.ar      1 P27         0.1052
     43 C8A        -2.4570   69.3530   74.0780 C.ar      1 P27        -0.0506
     44 C8B        -0.9300   71.7240   73.7510 C.ar      1 P27        -0.0324
     45 C9A        -2.1650   70.1700   75.1860 C.ar      1 P27        -0.0707
     46 C9B        -1.4010   71.3530   75.0260 C.ar      1 P27        -0.0695
     47 H1          0.9531   70.5662   69.3592 H         1 P27         0.0430
     48 H2         -0.5530   71.2093   68.6212 H         1 P27         0.0430
     49 H3         -0.4824   73.1153   67.1711 H         1 P27         0.0652
     50 H4          3.1077   72.1236   69.3512 H         1 P27         0.0652
     51 H5          0.7987   74.6326   65.7166 H         1 P27         0.0835
     52 H6          4.4193   73.6507   67.8712 H         1 P27         0.0835
     53 H7         -0.2973   74.2027   70.2755 H         1 P27         0.0430
     54 H8         -1.3863   73.6020   71.5717 H         1 P27         0.0430
     55 H9         -1.5280   75.1573   68.5854 H         1 P27         0.0652
     56 H10        -3.0839   71.4867   70.2721 H         1 P27         0.0652
     57 H11        -3.4055   75.2595   66.9910 H         1 P27         0.0835
     58 H12        -4.9955   71.5867   68.6368 H         1 P27         0.0835
     59 H13         1.8695   70.2912   71.6356 H         1 P27         0.0817
     60 H14         0.7336   74.4559   71.7484 H         1 P27         0.0814
     61 H15         2.7279   74.9766   73.1748 H         1 P27         0.0685
     62 H16        -3.0419   68.4497   74.2082 H         1 P27         0.0596
     63 H17        -0.3511   72.6324   73.6296 H         1 P27         0.0566
     64 H18        -2.5271   69.8924   76.1693 H         1 P27         0.0540
     65 H19        -1.1786   71.9737   75.8864 H         1 P27         0.0580
@<TRIPOS>BOND
     1    1    2 1  
     2   15    1 1  
     3    2    3 ar 
     4    2    4 ar 
     5    3    5 ar 
     6    4    6 ar 
     7    5    7 ar 
     8    6    7 ar 
     9    7    8 1  
    10    8    9 1  
    11    8   10 1  
    12    8   11 1  
    13   11   12 ar 
    14   11   13 ar 
    15   11   14 ar 
    16   15   16 1  
    17   30   15 1  
    18   15   38 1  
    19   16   17 1  
    20   17   18 ar 
    21   17   19 ar 
    22   18   20 ar 
    23   19   21 ar 
    24   20   22 ar 
    25   21   22 ar 
    26   22   23 1  
    27   23   24 1  
    28   23   25 1  
    29   23   26 1  
    30   26   27 ar 
    31   26   28 ar 
    32   26   29 ar 
    33   30   31 ar 
    34   32   30 ar 
    35   31   34 ar 
    36   35   32 ar 
    37   34   36 1  
    38   38   39 1  
    39   38   42 1  
    40   39   40 2  
    41   41   40 1  
    42   42   41 ar 
    43   41   43 ar 
    44   42   44 ar 
    45   43   45 ar 
    46   44   46 ar 
    47   46   45 ar 
    48   33   37 1  
    49   35   33 ar 
    50   34   33 ar 
    51    1   47 1  
    52    1   48 1  
    53    3   49 1  
    54    4   50 1  
    55    5   51 1  
    56    6   52 1  
    57   16   53 1  
    58   16   54 1  
    59   18   55 1  
    60   19   56 1  
    61   20   57 1  
    62   21   58 1  
    63   31   59 1  
    64   32   60 1  
    65   35   61 1  
    66   43   62 1  
    67   44   63 1  
    68   45   64 1  
    69   46   65 1  
@<TRIPOS>SUBSTRUCTURE
     1 P27         1

