1q6m_ligand
  -I-interpret- 

 69 73  0  0  0  0  0  0  0  0999 V2000
    0.3450   71.4690   69.2010 C   0  0  0  0  0
    1.1890   72.4930   68.3710 C   0  0  0  0  0
    0.5840   73.2230   67.3330 C   0  0  0  0  0
    2.6040   72.6640   68.5580 C   0  0  0  0  0
    1.3100   74.0850   66.5000 C   0  0  0  0  0
    3.3530   73.5340   67.7150 C   0  0  0  0  0
    2.7110   74.2470   66.6740 C   0  0  0  0  0
    3.4640   75.1940   65.7870 C   0  0  0  0  0
    4.5420   75.6280   66.4430 F   0  0  0  0  0
    2.6770   76.2610   65.6180 F   0  0  0  0  0
    3.9210   74.6910   64.2910 P   0  0  0  0  0
    2.6940   74.1580   63.4880 O   0  0  0  0  0
    4.9390   73.5830   64.3840 O   0  0  0  0  0
    4.4690   75.9120   63.5730 O   0  0  0  0  0
   -0.1280   72.0310   70.6560 C   0  0  0  0  0
   -0.9730   73.3880   70.5750 C   0  0  0  0  0
   -2.1400   73.3220   69.5640 C   0  0  0  0  0
   -2.2780   74.3750   68.6090 C   0  0  0  0  0
   -3.1460   72.3060   69.5650 C   0  0  0  0  0
   -3.3500   74.4380   67.6960 C   0  0  0  0  0
   -4.2410   72.3650   68.6320 C   0  0  0  0  0
   -4.3400   73.4560   67.6890 C   0  0  0  0  0
   -5.5170   73.5620   66.7090 C   0  0  0  0  0
   -6.2100   72.4160   66.6900 F   0  0  0  0  0
   -5.0490   73.7150   65.4950 F   0  0  0  0  0
   -6.5570   74.7640   67.0440 P   0  0  0  0  0
   -5.9560   76.1320   66.6610 O   0  0  0  0  0
   -6.8260   74.7660   68.5370 O   0  0  0  0  0
   -7.8300   74.5380   66.2740 O   0  0  0  0  0
    1.1500   72.3360   71.5740 C   0  0  0  0  0
    2.0460   71.3100   71.9610 C   0  0  0  0  0
    1.4120   73.6580   72.0280 C   0  0  0  0  0
    3.4070   72.9260   73.1980 C   0  0  0  0  0
    3.1630   71.6020   72.7640 C   0  0  0  0  0
    2.5430   73.9620   72.8410 C   0  0  0  0  0
    3.9900   70.6220   73.1120 F   0  0  0  0  0
    4.4640   73.2140   73.9500 F   0  0  0  0  0
   -0.9550   70.8680   71.1870 N   0  0  0  0  0
   -1.5100   69.7660   70.5690 N   0  0  0  0  0
   -2.0880   69.1620   71.5900 N   0  0  0  0  0
   -1.9990   69.7030   72.8310 C   0  0  0  0  0
   -1.2130   70.9110   72.6310 C   0  0  0  0  0
   -2.4570   69.3530   74.0780 C   0  0  0  0  0
   -0.9300   71.7240   73.7510 C   0  0  0  0  0
   -2.1650   70.1700   75.1860 C   0  0  0  0  0
   -1.4010   71.3530   75.0260 C   0  0  0  0  0
    0.9751   70.5975   69.3788 H   0  0  0  0  0
   -0.5565   71.2515   68.6282 H   0  0  0  0  0
   -0.4883   73.1147   67.1702 H   0  0  0  0  0
    3.1105   72.1206   69.3556 H   0  0  0  0  0
    0.7959   74.6356   65.7123 H   0  0  0  0  0
    4.4252   73.6514   67.8720 H   0  0  0  0  0
    2.0333   74.8510   63.4180 H   0  0  0  0  0
    3.7913   76.5910   63.5359 H   0  0  0  0  0
   -0.2972   74.1778   70.2469 H   0  0  0  0  0
   -1.4011   73.5688   71.5610 H   0  0  0  0  0
   -1.5239   75.1617   68.5852 H   0  0  0  0  0
   -3.0836   71.4822   70.2760 H   0  0  0  0  0
   -3.4058   75.2641   66.9871 H   0  0  0  0  0
   -4.9997   71.5824   68.6368 H   0  0  0  0  0
   -5.1443   76.2729   67.1538 H   0  0  0  0  0
   -6.0029   74.9114   69.0091 H   0  0  0  0  0
    1.8685   70.2855   71.6338 H   0  0  0  0  0
    0.7298   74.4603   71.7469 H   0  0  0  0  0
    2.7289   74.9822   73.1767 H   0  0  0  0  0
   -3.0451   68.4447   74.2089 H   0  0  0  0  0
   -0.3479   72.6374   73.6290 H   0  0  0  0  0
   -2.5292   69.8909   76.1747 H   0  0  0  0  0
   -1.1773   71.9771   75.8912 H   0  0  0  0  0
  1  2  1  0  0  0
 15  1  1  0  0  0
  2  3  4  0  0  0
  2  4  4  0  0  0
  3  5  4  0  0  0
  4  6  4  0  0  0
  5  7  4  0  0  0
  6  7  4  0  0  0
  7  8  1  0  0  0
  8  9  1  0  0  0
  8 10  1  0  0  0
  8 11  1  0  0  0
 11 12  1  0  0  0
 11 13  2  0  0  0
 11 14  1  0  0  0
 15 16  1  0  0  0
 30 15  1  0  0  0
 15 38  1  0  0  0
 16 17  1  0  0  0
 17 18  4  0  0  0
 17 19  4  0  0  0
 18 20  4  0  0  0
 19 21  4  0  0  0
 20 22  4  0  0  0
 21 22  4  0  0  0
 22 23  1  0  0  0
 23 24  1  0  0  0
 23 25  1  0  0  0
 23 26  1  0  0  0
 26 27  1  0  0  0
 26 28  1  0  0  0
 26 29  2  0  0  0
 30 31  4  0  0  0
 32 30  4  0  0  0
 31 34  4  0  0  0
 35 32  4  0  0  0
 34 36  1  0  0  0
 38 39  4  0  0  0
 38 42  4  0  0  0
 39 40  4  0  0  0
 41 40  4  0  0  0
 42 41  4  0  0  0
 41 43  4  0  0  0
 42 44  4  0  0  0
 43 45  4  0  0  0
 44 46  4  0  0  0
 46 45  4  0  0  0
 33 37  1  0  0  0
 35 33  4  0  0  0
 34 33  4  0  0  0
  1 47  1  0  0  0
  1 48  1  0  0  0
  3 49  1  0  0  0
  4 50  1  0  0  0
  5 51  1  0  0  0
  6 52  1  0  0  0
 12 53  1  0  0  0
 14 54  1  0  0  0
 16 55  1  0  0  0
 16 56  1  0  0  0
 18 57  1  0  0  0
 19 58  1  0  0  0
 20 59  1  0  0  0
 21 60  1  0  0  0
 27 61  1  0  0  0
 28 62  1  0  0  0
 31 63  1  0  0  0
 32 64  1  0  0  0
 35 65  1  0  0  0
 43 66  1  0  0  0
 44 67  1  0  0  0
 45 68  1  0  0  0
 46 69  1  0  0  0
M  END
$$$$
