5a5o_ligand
  -I-interpret- 

 21 22  0  0  0  0  0  0  0  0999 V2000
  -23.6520   44.8880    9.7640 C   0  0  0  0  0
  -24.9580   44.9750   10.5080 C   0  0  0  0  0
  -25.8370   45.9540   10.2410 C   0  0  0  0  0
  -27.0900   46.0640   10.9350 C   0  0  0  0  0
  -28.0310   47.0690   10.6860 C   0  0  0  0  0
  -29.2210   47.1130   11.3930 C   0  0  0  0  0
  -29.4930   46.1640   12.3560 C   0  0  0  0  0
  -28.5800   45.1540   12.6250 C   0  0  0  0  0
  -27.3780   45.1040   11.9170 C   0  0  0  0  0
  -26.4460   44.1020   12.1700 N   0  0  0  0  0
  -25.2530   43.9720   11.5320 C   0  0  0  0  0
  -24.5040   43.0450   11.8360 O   0  0  0  0  0
  -23.8494   44.7716    8.6984 H   0  0  0  0  0
  -23.0787   45.7998    9.9311 H   0  0  0  0  0
  -23.0857   44.0298   10.1258 H   0  0  0  0  0
  -25.5923   46.6884    9.4736 H   0  0  0  0  0
  -27.8254   47.8248    9.9280 H   0  0  0  0  0
  -29.9456   47.9009   11.1875 H   0  0  0  0  0
  -30.4311   46.2075   12.9094 H   0  0  0  0  0
  -28.8002   44.4041   13.3848 H   0  0  0  0  0
  -26.6752   43.4141   12.8874 H   0  0  0  0  0
  1  2  1  0  0  0
  2  3  2  0  0  0
  2 11  1  0  0  0
  3  4  1  0  0  0
  4  5  4  0  0  0
  4  9  4  0  0  0
  5  6  4  0  0  0
  6  7  4  0  0  0
  7  8  4  0  0  0
  8  9  4  0  0  0
  9 10  1  0  0  0
 10 11  1  0  0  0
 11 12  2  0  0  0
  1 13  1  0  0  0
  1 14  1  0  0  0
  1 15  1  0  0  0
  3 16  1  0  0  0
  5 17  1  0  0  0
  6 18  1  0  0  0
  7 19  1  0  0  0
  8 20  1  0  0  0
 10 21  1  0  0  0
M  END
$$$$
