5wmg_ligand
  -I-interpret- 

 55 59  0  0  0  0  0  0  0  0999 V2000
   -9.0210  -11.9630    4.9260 C   0  0  0  0  0
  -14.8970  -12.9900    1.3940 C   0  0  0  0  0
  -13.6650  -15.2010    1.4020 C   0  0  0  0  0
  -11.4410  -13.7220    5.8240 C   0  0  0  0  0
  -14.8680  -15.5080    3.5910 C   0  0  0  0  0
   -9.5270  -10.9820    5.9040 C   0  0  0  0  0
  -18.7990  -15.7290    9.9130 O   0  0  0  0  0
  -19.5520  -17.4020    8.6140 O   0  0  0  0  0
  -13.2680  -13.4820   -0.3060 N   0  0  0  0  0
  -13.5540  -12.2810   -0.8590 C   0  0  0  0  0
  -14.4910  -11.3980   -0.3570 C   0  0  0  0  0
  -15.1700  -11.7650    0.7940 C   0  0  0  0  0
  -13.9380  -13.8260    0.8180 C   0  0  0  0  0
  -13.7720  -15.1280    2.8610 N   0  0  0  0  0
  -12.6660  -14.2240    6.0900 N   0  0  0  0  0
   -7.7530  -11.7700    4.4690 O   0  0  0  0  0
   -7.4300  -12.7730    3.5680 N   0  0  0  0  0
   -8.4790  -14.7390    2.5860 C   0  0  0  0  0
   -8.5050  -13.5580    3.4890 C   0  0  0  0  0
   -9.5450  -13.0850    4.3300 C   0  0  0  0  0
  -10.8640  -13.6150    4.5600 C   0  0  0  0  0
  -11.5850  -14.0650    3.4650 C   0  0  0  0  0
  -12.8440  -14.5910    3.7130 C   0  0  0  0  0
  -13.3610  -14.6640    5.0100 C   0  0  0  0  0
  -14.6500  -15.2610    4.9370 C   0  0  0  0  0
  -16.7510  -15.1010    8.0780 C   0  0  0  0  0
  -15.7540  -14.8250    7.1330 C   0  0  0  0  0
  -15.6610  -15.5660    5.9470 C   0  0  0  0  0
  -16.5930  -16.5860    5.7390 C   0  0  0  0  0
  -17.5820  -16.8620    6.6800 C   0  0  0  0  0
  -17.6770  -16.1320    7.8680 C   0  0  0  0  0
  -18.7580  -16.4440    8.8710 C   0  0  0  0  0
  -14.6710  -16.1890    0.8060 C   0  0  0  0  0
  -15.4232  -13.2926    2.2993 H   0  0  0  0  0
  -12.6597  -15.5433    1.1565 H   0  0  0  0  0
  -10.8525  -13.3700    6.6713 H   0  0  0  0  0
  -15.7774  -15.9408    3.1741 H   0  0  0  0  0
   -8.8882  -10.9887    6.7872 H   0  0  0  0  0
   -9.5201   -9.9881    5.4566 H   0  0  0  0  0
  -10.5454  -11.2467    6.1886 H   0  0  0  0  0
  -19.3200  -17.7900    7.7671 H   0  0  0  0  0
  -13.0105  -11.9912   -1.7583 H   0  0  0  0  0
  -14.6891  -10.4459   -0.8493 H   0  0  0  0  0
  -15.9145  -11.0970    1.2271 H   0  0  0  0  0
   -8.3094  -14.4078    1.5615 H   0  0  0  0  0
   -7.6754  -15.4097    2.8901 H   0  0  0  0  0
   -9.4332  -15.2623    2.6467 H   0  0  0  0  0
  -11.1806  -14.0080    2.4544 H   0  0  0  0  0
  -16.8073  -14.5056    8.9893 H   0  0  0  0  0
  -15.0408  -14.0229    7.3229 H   0  0  0  0  0
  -16.5452  -17.1763    4.8239 H   0  0  0  0  0
  -18.2957  -17.6628    6.4862 H   0  0  0  0  0
  -15.6829  -15.8712    1.0573 H   0  0  0  0  0
  -14.5552  -16.2142   -0.2775 H   0  0  0  0  0
  -14.4887  -17.1826    1.2154 H   0  0  0  0  0
  1  6  1  0  0  0
  1 16  4  0  0  0
 20  1  4  0  0  0
  2 12  4  0  0  0
 13  2  4  0  0  0
  3 13  1  0  0  0
 14  3  1  0  0  0
  3 33  1  0  0  0
 15  4  4  0  0  0
  4 21  4  0  0  0
  5 14  4  0  0  0
 25  5  4  0  0  0
 32  7  2  0  0  0
 32  8  1  0  0  0
  9 10  4  0  0  0
 13  9  4  0  0  0
 10 11  4  0  0  0
 12 11  4  0  0  0
 23 14  4  0  0  0
 24 15  4  0  0  0
 17 16  4  0  0  0
 19 17  4  0  0  0
 19 18  1  0  0  0
 20 19  4  0  0  0
 21 20  1  0  0  0
 22 21  4  0  0  0
 23 22  4  0  0  0
 24 23  4  0  0  0
 25 24  4  0  0  0
 28 25  1  0  0  0
 26 27  4  0  0  0
 31 26  4  0  0  0
 27 28  4  0  0  0
 29 28  4  0  0  0
 30 29  4  0  0  0
 31 30  4  0  0  0
 31 32  1  0  0  0
  2 34  1  0  0  0
  3 35  1  0  0  0
  4 36  1  0  0  0
  5 37  1  0  0  0
  6 38  1  0  0  0
  6 39  1  0  0  0
  6 40  1  0  0  0
  8 41  1  0  0  0
 10 42  1  0  0  0
 11 43  1  0  0  0
 12 44  1  0  0  0
 18 45  1  0  0  0
 18 46  1  0  0  0
 18 47  1  0  0  0
 22 48  1  0  0  0
 26 49  1  0  0  0
 27 50  1  0  0  0
 29 51  1  0  0  0
 30 52  1  0  0  0
 33 53  1  0  0  0
 33 54  1  0  0  0
 33 55  1  0  0  0
M  END
$$$$
