### 
### Created by X-TOOL on Mon Sep 10 21:13:04 2018
### 

@<TRIPOS>MOLECULE
3g5v_ligand
  227   228     1     0     0
SMALL
GAST_HUCK


@<TRIPOS>ATOM
      1 N          25.3480   17.9730  -10.4960 N.4       1 CYS         0.2385
      2 CA         25.4180   18.2020   -9.0220 C.3       1 CYS         0.0749
      3 C          26.8240   17.9730   -8.4560 C.2       1 CYS         0.2273
      4 O          27.6930   17.4190   -9.1310 O.2       1 CYS        -0.3907
      5 CB         24.4050   17.3110   -8.2980 C.3       1 CYS         0.0643
      6 SG         24.5650   15.5470   -8.6520 S.3       1 CYS        -0.0848
      7 N          27.0280   18.3940   -7.2080 N.am      1 GLY        -0.2637
      8 CA         28.3260   18.2770   -6.5510 C.3       1 GLY         0.1202
      9 C          29.2660   19.3780   -6.9980 C.2       1 GLY         0.2007
     10 O          28.8780   20.5470   -7.0460 O.2       1 GLY        -0.3947
     11 N          30.4970   19.0010   -7.3350 N.am      1 ALA        -0.2642
     12 CA         31.5080   19.9510   -7.8060 C.3       1 ALA         0.1282
     13 C          31.1410   20.5780   -9.1550 C.2       1 ALA         0.2037
     14 O          31.4770   21.7330   -9.4220 O.2       1 ALA        -0.3944
     15 CB         32.8720   19.2760   -7.8840 C.3       1 ALA        -0.0244
     16 N          30.4390   19.8120   -9.9870 N.am      1 ASP        -0.2622
     17 CA         30.0850   20.2390  -11.3390 C.3       1 ASP         0.1423
     18 C          28.5640   20.3480  -11.5130 C.2       1 ASP         0.2057
     19 O          27.8150   20.3380  -10.5300 O.2       1 ASP        -0.3943
     20 CB         30.6620   19.2400  -12.3520 C.3       1 ASP         0.0406
     21 CG         31.2850   19.9170  -13.5570 C.2       1 ASP         0.0393
     22 OD1        31.7860   19.1930  -14.4440 O.co2     1 ASP        -0.5688
     23 OD2        31.2910   21.1680  -13.6210 O.co2     1 ASP        -0.5688
     24 N          28.1180   20.4600  -12.7650 N.am      1 SER        -0.2615
     25 CA         26.6910   20.4340  -13.0950 C.3       1 SER         0.1539
     26 C          26.2290   19.0580  -13.6070 C.2       1 SER         0.2063
     27 O          25.0410   18.8550  -13.8650 O.2       1 SER        -0.3943
     28 CB         26.3550   21.5230  -14.1150 C.3       1 SER         0.0843
     29 OG         26.6400   22.8130  -13.6020 O.3       1 SER        -0.3903
     30 N          27.1700   18.1210  -13.7370 N.am      1 TYR        -0.2621
     31 CA         26.8800   16.7670  -14.2200 C.3       1 TYR         0.1390
     32 C          26.2090   15.8820  -13.1710 C.2       1 TYR         0.2057
     33 O          26.6860   15.7730  -12.0380 O.2       1 TYR        -0.3942
     34 CB         28.1620   16.0720  -14.6880 C.3       1 TYR         0.0163
     35 CG         28.6970   16.5220  -16.0340 C.ar      1 TYR        -0.0493
     36 CD1        28.0410   16.1830  -17.2220 C.ar      1 TYR        -0.0685
     37 CD2        29.8770   17.2560  -16.1230 C.ar      1 TYR        -0.0685
     38 CE1        28.5390   16.5860  -18.4590 C.ar      1 TYR        -0.0398
     39 CE2        30.3840   17.6610  -17.3560 C.ar      1 TYR        -0.0398
     40 CZ         29.7100   17.3220  -18.5170 C.ar      1 TYR         0.0805
     41 OH         30.2090   17.7200  -19.7350 O.3       1 TYR        -0.3376
     42 N          25.1020   15.2570  -13.5630 N.am      1 GLU        -0.2635
     43 CA         24.5090   14.1460  -12.8120 C.3       1 GLU         0.1325
     44 C          24.5500   12.9270  -13.7370 C.2       1 GLU         0.2040
     45 O          24.4960   13.0740  -14.9610 O.2       1 GLU        -0.3944
     46 CB         23.0660   14.4540  -12.3820 C.3       1 GLU        -0.0008
     47 CG         22.4650   13.4430  -11.3730 C.3       1 GLU         0.0044
     48 CD         20.9300   13.4820  -11.2820 C.2       1 GLU         0.0350
     49 OE1        20.2680   13.8740  -12.2710 O.co2     1 GLU        -0.5690
     50 OE2        20.3800   13.1080  -10.2190 O.co2     1 GLU        -0.5690
     51 N          24.6640   11.7370  -13.1530 N.am      1 MET        -0.2637
     52 CA         24.7200   10.4880  -13.9190 C.3       1 MET         0.1317
     53 C          23.9080    9.3810  -13.2310 C.2       1 MET         0.2039
     54 O          23.5570    9.5180  -12.0540 O.2       1 MET        -0.3944
     55 CB         26.1940   10.1070  -14.1870 C.3       1 MET        -0.0034
     56 CG         26.6470    8.7010  -13.7940 C.3       1 MET        -0.0024
     57 SD         27.0850    8.5670  -12.0440 S.3       1 MET        -0.1639
     58 CE         28.5720    9.5730  -11.9960 C.3       1 MET        -0.0181
     59 N          23.5630    8.3180  -13.9640 N.am      1 GLU        -0.2636
     60 CA         22.9860    7.1270  -13.3150 C.3       1 GLU         0.1325
     61 C          23.7680    5.8420  -13.5560 C.2       1 GLU         0.2040
     62 O          24.3390    5.6250  -14.6220 O.2       1 GLU        -0.3944
     63 CB         21.4690    6.9450  -13.5710 C.3       1 GLU        -0.0008
     64 CG         21.0200    6.6230  -14.9880 C.3       1 GLU         0.0044
     65 CD         21.2100    5.1560  -15.4210 C.2       1 GLU         0.0350
     66 OE1        21.2620    4.2290  -14.5790 O.co2     1 GLU        -0.5690
     67 OE2        21.2960    4.9370  -16.6400 O.co2     1 GLU        -0.5690
     68 N          23.7740    5.0050  -12.5280 N.am      1 GLU        -0.2636
     69 CA         24.4350    3.7160  -12.5380 C.3       1 GLU         0.1325
     70 C          23.4630    2.7150  -11.9250 C.2       1 GLU         0.2041
     71 O          23.0170    2.9100  -10.7930 O.2       1 GLU        -0.3944
     72 CB         25.7080    3.8070  -11.7040 C.3       1 GLU        -0.0008
     73 CG         26.3840    2.4840  -11.4010 C.3       1 GLU         0.0044
     74 CD         27.7390    2.6730  -10.7450 C.2       1 GLU         0.0350
     75 OE1        27.9680    3.7530  -10.1460 O.co2     1 GLU        -0.5690
     76 OE2        28.5750    1.7430  -10.8380 O.co2     1 GLU        -0.5690
     77 N          23.1310    1.6610  -12.6750 N.am      1 ASP        -0.2622
     78 CA         22.1630    0.6470  -12.2260 C.3       1 ASP         0.1423
     79 C          20.8640    1.2760  -11.7040 C.2       1 ASP         0.2054
     80 O          20.2810    0.7910  -10.7260 O.2       1 ASP        -0.3943
     81 CB         22.7740   -0.2330  -11.1250 C.3       1 ASP         0.0406
     82 CG         23.8170   -1.2060  -11.6440 C.2       1 ASP         0.0393
     83 OD1        23.7020   -1.6930  -12.7960 O.co2     1 ASP        -0.5688
     84 OD2        24.7560   -1.5010  -10.8710 O.co2     1 ASP        -0.5688
     85 N          20.4290    2.3650  -12.3390 N.am      1 GLY        -0.2663
     86 CA         19.2180    3.0800  -11.9300 C.3       1 GLY         0.1201
     87 C          19.3530    3.9960  -10.7230 C.2       1 GLY         0.2008
     88 O          18.3630    4.5700  -10.2590 O.2       1 GLY        -0.3947
     89 N          20.5720    4.1470  -10.2070 N.am      1 VAL        -0.2637
     90 CA         20.7930    5.0650   -9.0950 C.3       1 VAL         0.1332
     91 C          21.4960    6.3280   -9.5860 C.2       1 VAL         0.2041
     92 O          22.5450    6.2560  -10.2220 O.2       1 VAL        -0.3944
     93 CB         21.5700    4.4210   -7.9260 C.3       1 VAL        -0.0063
     94 CG1        21.6460    5.3780   -6.7450 C.3       1 VAL        -0.0584
     95 CG2        20.8940    3.1310   -7.4850 C.3       1 VAL        -0.0584
     96 N          20.8800    7.4670   -9.2870 N.am      1 ARG        -0.2637
     97 CA         21.3770    8.7790   -9.6680 C.3       1 ARG         0.1311
     98 C          22.5010    9.1590   -8.7270 C.2       1 ARG         0.2039
     99 O          22.3900    8.9860   -7.5120 O.2       1 ARG        -0.3944
    100 CB         20.2550    9.8230   -9.6150 C.3       1 ARG        -0.0092
    101 CG         19.3840    9.8950  -10.8770 C.3       1 ARG        -0.0156
    102 CD         18.6600    8.5870  -11.1340 C.3       1 ARG         0.0627
    103 NE         17.7290    8.6560  -12.2590 N.pl3     1 ARG        -0.2723
    104 CZ         17.0070    7.6290  -12.6960 C.cat     1 ARG         0.2882
    105 NH1        16.1850    7.7880  -13.7280 N.pl3     1 ARG        -0.2849
    106 NH2        17.1080    6.4420  -12.1110 N.pl3     1 ARG        -0.2849
    107 N          23.5880    9.6520   -9.3030 N.am      1 LYS        -0.2637
    108 CA         24.7790   10.0190   -8.5520 C.3       1 LYS         0.1309
    109 C          25.4140   11.2820   -9.1320 C.2       1 LYS         0.2034
    110 O          25.1950   11.6280  -10.2960 O.2       1 LYS        -0.3944
    111 CB         25.7910    8.8640   -8.5400 C.3       1 LYS        -0.0122
    112 CG         25.2210    7.5290   -8.0360 C.3       1 LYS        -0.0440
    113 CD         26.2620    6.4190   -8.0330 C.3       1 LYS        -0.0124
    114 CE         25.5850    5.0670   -7.8540 C.3       1 LYS        -0.0354
    115 NZ         26.5690    3.9360   -7.8440 N.4       1 LYS         0.2185
    116 N          26.1910   11.9700   -8.3040 N.am      1 CYS        -0.2687
    117 CA         26.9280   13.1500   -8.7350 C.3       1 CYS         0.1041
    118 C          28.3110   12.7400   -9.2180 C.2       1 CYS         0.0609
    119 O          28.9990   11.9340   -8.5890 O.co2     1 CYS        -0.5666
    120 CB         27.0420   14.1660   -7.5970 C.3       1 CYS         0.0388
    121 SG         25.4620   14.7920   -6.9850 S.3       1 CYS        -0.0887
    122 OXT        28.7630   13.2070  -10.2570 O.co2     1 CYS        -0.5666
    123 H1         24.4065   18.1360  -10.8170 H         1 CYS         0.2015
    124 H2         25.6131   17.0224  -10.7013 H         1 CYS         0.2015
    125 H3         25.9770   18.6060  -10.9647 H         1 CYS         0.2015
    126 H4         25.1482   19.2516   -8.8334 H         1 CYS         0.1107
    127 H5         23.3947   17.6298   -8.5941 H         1 CYS         0.0466
    128 H6         24.5328   17.4563   -7.2152 H         1 CYS         0.0466
    129 H7         26.2667   18.8035   -6.7053 H         1 GLY         0.1882
    130 H8         28.7693   17.3023   -6.8027 H         1 GLY         0.0763
    131 H9         28.1849   18.3455   -5.4623 H         1 GLY         0.0763
    132 H10        30.7409   18.0338   -7.2641 H         1 ALA         0.1883
    133 H11        31.5717   20.7638   -7.0676 H         1 ALA         0.0797
    134 H12        33.6199   20.0005   -8.2386 H         1 ALA         0.0277
    135 H13        32.8222   18.4284   -8.5834 H         1 ALA         0.0277
    136 H14        33.1585   18.9119   -6.8864 H         1 ALA         0.0277
    137 H15        30.1424   18.9095   -9.6748 H         1 ASP         0.1884
    138 H16        30.5284   21.2288  -11.5225 H         1 ASP         0.0819
    139 H17        29.8506   18.5831  -12.6987 H         1 ASP         0.0478
    140 H18        31.4331   18.6369  -11.8504 H         1 ASP         0.0478
    141 H19        28.7819   20.5656  -13.5053 H         1 SER         0.1884
    142 H20        26.1330   20.6497  -12.1719 H         1 SER         0.0823
    143 H21        25.2849   21.4642  -14.3630 H         1 SER         0.0606
    144 H22        26.9517   21.3590  -15.0244 H         1 SER         0.0606
    145 H23        26.4222   23.4675  -14.2551 H         1 SER         0.2097
    146 H24        28.1124   18.3517  -13.4949 H         1 TYR         0.1885
    147 H25        26.1971   16.8583  -15.0775 H         1 TYR         0.0821
    148 H26        27.9593   14.9925  -14.7481 H         1 TYR         0.0453
    149 H27        28.9419   16.2573  -13.9347 H         1 TYR         0.0453
    150 H28        27.1300   15.5970  -17.1794 H         1 TYR         0.0530
    151 H29        30.4109   17.5171  -15.2164 H         1 TYR         0.0530
    152 H30        28.0130   16.3250  -19.3702 H         1 TYR         0.0525
    153 H31        31.3004   18.2379  -17.4060 H         1 TYR         0.0525
    154 H32        29.6361   17.4110  -20.4269 H         1 TYR         0.2458
    155 H33        24.6553   15.5577  -14.4057 H         1 GLU         0.1883
    156 H34        25.1099   13.9492  -11.9119 H         1 GLU         0.0801
    157 H35        22.4332   14.4584  -13.2817 H         1 GLU         0.0330
    158 H36        23.0514   15.4515  -11.9185 H         1 GLU         0.0330
    159 H37        22.8756   13.6640  -10.3767 H         1 GLU         0.0433
    160 H38        22.7671   12.4301  -11.6777 H         1 GLU         0.0433
    161 H39        24.7133   11.6928  -12.1552 H         1 MET         0.1883
    162 H40        24.2485   10.6717  -14.8957 H         1 MET         0.0800
    163 H41        26.8234   10.8210  -13.6357 H         1 MET         0.0320
    164 H42        26.3714   10.2195  -15.2668 H         1 MET         0.0320
    165 H43        27.5270    8.4340  -14.3976 H         1 MET         0.0378
    166 H44        25.8293    7.9965  -14.0062 H         1 MET         0.0378
    167 H45        28.9696    9.5909  -10.9705 H         1 MET         0.0340
    168 H46        28.3316   10.5982  -12.3140 H         1 MET         0.0340
    169 H47        29.3256    9.1460  -12.6740 H         1 MET         0.0340
    170 H48        23.6966    8.3307  -14.9550 H         1 GLU         0.1883
    171 H49        23.0764    7.3217  -12.2362 H         1 GLU         0.0801
    172 H50        20.9722    7.8806  -13.2746 H         1 GLU         0.0330
    173 H51        21.1236    6.1254  -12.9238 H         1 GLU         0.0330
    174 H52        21.5934    7.2584  -15.6790 H         1 GLU         0.0433
    175 H53        19.9501    6.8655  -15.0690 H         1 GLU         0.0433
    176 H54        23.2932    5.2800  -11.6954 H         1 GLU         0.1883
    177 H55        24.6854    3.4195  -13.5673 H         1 GLU         0.0801
    178 H56        25.4528    4.2846  -10.7465 H         1 GLU         0.0330
    179 H57        26.4260    4.4378  -12.2486 H         1 GLU         0.0330
    180 H58        26.5196    1.9311  -12.3422 H         1 GLU         0.0433
    181 H59        25.7401    1.9034  -10.7241 H         1 GLU         0.0433
    182 H60        23.5555    1.5569  -13.5744 H         1 ASP         0.1884
    183 H61        21.9153    0.0093  -13.0873 H         1 ASP         0.0819
    184 H62        21.9661   -0.8082  -10.6492 H         1 ASP         0.0478
    185 H63        23.2477    0.4209  -10.3780 H         1 ASP         0.0478
    186 H64        20.9484    2.7057  -13.1227 H         1 GLY         0.1881
    187 H65        18.4480    2.3298  -11.6972 H         1 GLY         0.0763
    188 H66        18.8870    3.6933  -12.7811 H         1 GLY         0.0763
    189 H67        21.3394    3.6284  -10.5839 H         1 VAL         0.1883
    190 H68        19.8056    5.3578   -8.7087 H         1 VAL         0.0802
    191 H69        22.5908    4.1911   -8.2653 H         1 VAL         0.0343
    192 H70        22.2020    4.9029   -5.9233 H         1 VAL         0.0234
    193 H71        20.6288    5.6232   -6.4057 H         1 VAL         0.0234
    194 H72        22.1622    6.2995   -7.0523 H         1 VAL         0.0234
    195 H73        20.8375    2.4370   -8.3366 H         1 VAL         0.0234
    196 H74        19.8785    3.3535   -7.1254 H         1 VAL         0.0234
    197 H75        21.4773    2.6699   -6.6743 H         1 VAL         0.0234
    198 H76        20.0253    7.4188   -8.7701 H         1 ARG         0.1883
    199 H77        21.7667    8.7320  -10.6956 H         1 ARG         0.0800
    200 H78        20.7134   10.8106   -9.4586 H         1 ARG         0.0313
    201 H79        19.6031    9.5821   -8.7624 H         1 ARG         0.0313
    202 H80        20.0259   10.1228  -11.7407 H         1 ARG         0.0301
    203 H81        18.6401   10.6956  -10.7516 H         1 ARG         0.0301
    204 H82        18.0959    8.3159  -10.2294 H         1 ARG         0.0689
    205 H83        19.4081    7.8091  -11.3465 H         1 ARG         0.0689
    206 H84        17.6258    9.5586  -12.7443 H         1 ARG         0.2642
    207 H85        15.6250    6.9930  -14.0676 H         1 ARG         0.2615
    208 H86        16.1079    8.7062  -14.1883 H         1 ARG         0.2615
    209 H87        17.7440    6.3146  -11.3109 H         1 ARG         0.2615
    210 H88        16.5504    5.6481  -12.4571 H         1 ARG         0.2615
    211 H89        23.5897    9.7770  -10.2952 H         1 LYS         0.1883
    212 H90        24.4812   10.2277   -7.5138 H         1 LYS         0.0800
    213 H91        26.6303    9.1481   -7.8883 H         1 LYS         0.0312
    214 H92        26.1575    8.7164   -9.5666 H         1 LYS         0.0312
    215 H93        24.3883    7.2308   -8.6900 H         1 LYS         0.0269
    216 H94        24.8497    7.6681   -7.0099 H         1 LYS         0.0269
    217 H95        26.9680    6.5846   -7.2059 H         1 LYS         0.0317
    218 H96        26.8073    6.4291   -8.9882 H         1 LYS         0.0317
    219 H97        24.8774    4.9131   -8.6820 H         1 LYS         0.0813
    220 H98        25.0380    5.0686   -6.8996 H         1 LYS         0.0813
    221 H99        26.0776    3.0642   -7.7236 H         1 LYS         0.1994
    222 H100       27.2191    4.0629   -7.0842 H         1 LYS         0.1994
    223 H101       27.0719    3.9204   -8.7174 H         1 LYS         0.1994
    224 H102       26.2728   11.6684   -7.3541 H         1 CYS         0.1876
    225 H103       26.3859   13.6188   -9.5695 H         1 CYS         0.0734
    226 H104       27.6326   15.0207   -7.9583 H         1 CYS         0.0425
    227 H105       27.5678   13.6849   -6.7592 H         1 CYS         0.0425
@<TRIPOS>BOND
     1    1    2 1  
     2    2    3 1  
     3    2    5 1  
     4    3    4 2  
     5    3    7 am 
     6    5    6 1  
     7    6  121 1  
     8    7    8 1  
     9    8    9 1  
    10    9   10 2  
    11    9   11 am 
    12   11   12 1  
    13   12   13 1  
    14   12   15 1  
    15   13   14 2  
    16   13   16 am 
    17   16   17 1  
    18   17   18 1  
    19   17   20 1  
    20   18   19 2  
    21   18   24 am 
    22   20   21 1  
    23   21   22 ar 
    24   21   23 ar 
    25   24   25 1  
    26   25   26 1  
    27   25   28 1  
    28   26   27 2  
    29   26   30 am 
    30   28   29 1  
    31   30   31 1  
    32   31   32 1  
    33   31   34 1  
    34   32   33 2  
    35   32   42 am 
    36   34   35 1  
    37   35   36 ar 
    38   35   37 ar 
    39   36   38 ar 
    40   37   39 ar 
    41   38   40 ar 
    42   39   40 ar 
    43   40   41 1  
    44   42   43 1  
    45   43   44 1  
    46   43   46 1  
    47   44   45 2  
    48   44   51 am 
    49   46   47 1  
    50   47   48 1  
    51   48   49 ar 
    52   48   50 ar 
    53   51   52 1  
    54   52   53 1  
    55   52   55 1  
    56   53   54 2  
    57   53   59 am 
    58   55   56 1  
    59   56   57 1  
    60   57   58 1  
    61   59   60 1  
    62   60   61 1  
    63   60   63 1  
    64   61   62 2  
    65   61   68 am 
    66   63   64 1  
    67   64   65 1  
    68   65   66 ar 
    69   65   67 ar 
    70   68   69 1  
    71   69   70 1  
    72   69   72 1  
    73   70   71 2  
    74   70   77 am 
    75   72   73 1  
    76   73   74 1  
    77   74   75 ar 
    78   74   76 ar 
    79   77   78 1  
    80   78   79 1  
    81   78   81 1  
    82   79   80 2  
    83   79   85 am 
    84   81   82 1  
    85   82   83 ar 
    86   82   84 ar 
    87   85   86 1  
    88   86   87 1  
    89   87   88 2  
    90   87   89 am 
    91   89   90 1  
    92   90   91 1  
    93   90   93 1  
    94   91   92 2  
    95   91   96 am 
    96   93   94 1  
    97   93   95 1  
    98   96   97 1  
    99   97   98 1  
   100   97  100 1  
   101   98   99 2  
   102   98  107 am 
   103  100  101 1  
   104  101  102 1  
   105  102  103 1  
   106  103  104 ar 
   107  104  105 ar 
   108  104  106 ar 
   109  107  108 1  
   110  108  109 1  
   111  108  111 1  
   112  109  110 2  
   113  109  116 am 
   114  111  112 1  
   115  112  113 1  
   116  113  114 1  
   117  114  115 1  
   118  116  117 1  
   119  117  118 1  
   120  117  120 1  
   121  118  119 ar 
   122  118  122 ar 
   123  120  121 1  
   124    1  123 1  
   125    1  124 1  
   126    1  125 1  
   127    2  126 1  
   128    5  127 1  
   129    5  128 1  
   130    7  129 1  
   131    8  130 1  
   132    8  131 1  
   133   11  132 1  
   134   12  133 1  
   135   15  134 1  
   136   15  135 1  
   137   15  136 1  
   138   16  137 1  
   139   17  138 1  
   140   20  139 1  
   141   20  140 1  
   142   24  141 1  
   143   25  142 1  
   144   28  143 1  
   145   28  144 1  
   146   29  145 1  
   147   30  146 1  
   148   31  147 1  
   149   34  148 1  
   150   34  149 1  
   151   36  150 1  
   152   37  151 1  
   153   38  152 1  
   154   39  153 1  
   155   41  154 1  
   156   42  155 1  
   157   43  156 1  
   158   46  157 1  
   159   46  158 1  
   160   47  159 1  
   161   47  160 1  
   162   51  161 1  
   163   52  162 1  
   164   55  163 1  
   165   55  164 1  
   166   56  165 1  
   167   56  166 1  
   168   58  167 1  
   169   58  168 1  
   170   58  169 1  
   171   59  170 1  
   172   60  171 1  
   173   63  172 1  
   174   63  173 1  
   175   64  174 1  
   176   64  175 1  
   177   68  176 1  
   178   69  177 1  
   179   72  178 1  
   180   72  179 1  
   181   73  180 1  
   182   73  181 1  
   183   77  182 1  
   184   78  183 1  
   185   81  184 1  
   186   81  185 1  
   187   85  186 1  
   188   86  187 1  
   189   86  188 1  
   190   89  189 1  
   191   90  190 1  
   192   93  191 1  
   193   94  192 1  
   194   94  193 1  
   195   94  194 1  
   196   95  195 1  
   197   95  196 1  
   198   95  197 1  
   199   96  198 1  
   200   97  199 1  
   201  100  200 1  
   202  100  201 1  
   203  101  202 1  
   204  101  203 1  
   205  102  204 1  
   206  102  205 1  
   207  103  206 1  
   208  105  207 1  
   209  105  208 1  
   210  106  209 1  
   211  106  210 1  
   212  107  211 1  
   213  108  212 1  
   214  111  213 1  
   215  111  214 1  
   216  112  215 1  
   217  112  216 1  
   218  113  217 1  
   219  113  218 1  
   220  114  219 1  
   221  114  220 1  
   222  115  221 1  
   223  115  222 1  
   224  115  223 1  
   225  116  224 1  
   226  117  225 1  
   227  120  226 1  
   228  120  227 1  
@<TRIPOS>SUBSTRUCTURE
     1 CYS         1

