3g5v_ligand
  -I-interpret- 

232233  0  0  0  0  0  0  0  0999 V2000
   25.3480   17.9730  -10.4960 N   0  3  0  0  0
   25.4180   18.2020   -9.0220 C   0  0  0  0  0
   26.8240   17.9730   -8.4560 C   0  0  0  0  0
   27.6930   17.4190   -9.1310 O   0  0  0  0  0
   24.4050   17.3110   -8.2980 C   0  0  0  0  0
   24.5650   15.5470   -8.6520 S   0  0  0  0  0
   27.0280   18.3940   -7.2080 N   0  0  0  0  0
   28.3260   18.2770   -6.5510 C   0  0  0  0  0
   29.2660   19.3780   -6.9980 C   0  0  0  0  0
   28.8780   20.5470   -7.0460 O   0  0  0  0  0
   30.4970   19.0010   -7.3350 N   0  0  0  0  0
   31.5080   19.9510   -7.8060 C   0  0  0  0  0
   31.1410   20.5780   -9.1550 C   0  0  0  0  0
   31.4770   21.7330   -9.4220 O   0  0  0  0  0
   32.8720   19.2760   -7.8840 C   0  0  0  0  0
   30.4390   19.8120   -9.9870 N   0  0  0  0  0
   30.0850   20.2390  -11.3390 C   0  0  0  0  0
   28.5640   20.3480  -11.5130 C   0  0  0  0  0
   27.8150   20.3380  -10.5300 O   0  0  0  0  0
   30.6620   19.2400  -12.3520 C   0  0  0  0  0
   31.2850   19.9170  -13.5570 C   0  0  0  0  0
   31.7860   19.1930  -14.4440 O   0  0  0  0  0
   31.2910   21.1680  -13.6210 O   0  0  0  0  0
   28.1180   20.4600  -12.7650 N   0  0  0  0  0
   26.6910   20.4340  -13.0950 C   0  0  0  0  0
   26.2290   19.0580  -13.6070 C   0  0  0  0  0
   25.0410   18.8550  -13.8650 O   0  0  0  0  0
   26.3550   21.5230  -14.1150 C   0  0  0  0  0
   26.6400   22.8130  -13.6020 O   0  0  0  0  0
   27.1700   18.1210  -13.7370 N   0  0  0  0  0
   26.8800   16.7670  -14.2200 C   0  0  0  0  0
   26.2090   15.8820  -13.1710 C   0  0  0  0  0
   26.6860   15.7730  -12.0380 O   0  0  0  0  0
   28.1620   16.0720  -14.6880 C   0  0  0  0  0
   28.6970   16.5220  -16.0340 C   0  0  0  0  0
   28.0410   16.1830  -17.2220 C   0  0  0  0  0
   29.8770   17.2560  -16.1230 C   0  0  0  0  0
   28.5390   16.5860  -18.4590 C   0  0  0  0  0
   30.3840   17.6610  -17.3560 C   0  0  0  0  0
   29.7100   17.3220  -18.5170 C   0  0  0  0  0
   30.2090   17.7200  -19.7350 O   0  0  0  0  0
   25.1020   15.2570  -13.5630 N   0  0  0  0  0
   24.5090   14.1460  -12.8120 C   0  0  0  0  0
   24.5500   12.9270  -13.7370 C   0  0  0  0  0
   24.4960   13.0740  -14.9610 O   0  0  0  0  0
   23.0660   14.4540  -12.3820 C   0  0  0  0  0
   22.4650   13.4430  -11.3730 C   0  0  0  0  0
   20.9300   13.4820  -11.2820 C   0  0  0  0  0
   20.2680   13.8740  -12.2710 O   0  0  0  0  0
   20.3800   13.1080  -10.2190 O   0  0  0  0  0
   24.6640   11.7370  -13.1530 N   0  0  0  0  0
   24.7200   10.4880  -13.9190 C   0  0  0  0  0
   23.9080    9.3810  -13.2310 C   0  0  0  0  0
   23.5570    9.5180  -12.0540 O   0  0  0  0  0
   26.1940   10.1070  -14.1870 C   0  0  0  0  0
   26.6470    8.7010  -13.7940 C   0  0  0  0  0
   27.0850    8.5670  -12.0440 S   0  0  0  0  0
   28.5720    9.5730  -11.9960 C   0  0  0  0  0
   23.5630    8.3180  -13.9640 N   0  0  0  0  0
   22.9860    7.1270  -13.3150 C   0  0  0  0  0
   23.7680    5.8420  -13.5560 C   0  0  0  0  0
   24.3390    5.6250  -14.6220 O   0  0  0  0  0
   21.4690    6.9450  -13.5710 C   0  0  0  0  0
   21.0200    6.6230  -14.9880 C   0  0  0  0  0
   21.2100    5.1560  -15.4210 C   0  0  0  0  0
   21.2620    4.2290  -14.5790 O   0  0  0  0  0
   21.2960    4.9370  -16.6400 O   0  0  0  0  0
   23.7740    5.0050  -12.5280 N   0  0  0  0  0
   24.4350    3.7160  -12.5380 C   0  0  0  0  0
   23.4630    2.7150  -11.9250 C   0  0  0  0  0
   23.0170    2.9100  -10.7930 O   0  0  0  0  0
   25.7080    3.8070  -11.7040 C   0  0  0  0  0
   26.3840    2.4840  -11.4010 C   0  0  0  0  0
   27.7390    2.6730  -10.7450 C   0  0  0  0  0
   27.9680    3.7530  -10.1460 O   0  0  0  0  0
   28.5750    1.7430  -10.8380 O   0  0  0  0  0
   23.1310    1.6610  -12.6750 N   0  0  0  0  0
   22.1630    0.6470  -12.2260 C   0  0  0  0  0
   20.8640    1.2760  -11.7040 C   0  0  0  0  0
   20.2810    0.7910  -10.7260 O   0  0  0  0  0
   22.7740   -0.2330  -11.1250 C   0  0  0  0  0
   23.8170   -1.2060  -11.6440 C   0  0  0  0  0
   23.7020   -1.6930  -12.7960 O   0  0  0  0  0
   24.7560   -1.5010  -10.8710 O   0  0  0  0  0
   20.4290    2.3650  -12.3390 N   0  0  0  0  0
   19.2180    3.0800  -11.9300 C   0  0  0  0  0
   19.3530    3.9960  -10.7230 C   0  0  0  0  0
   18.3630    4.5700  -10.2590 O   0  0  0  0  0
   20.5720    4.1470  -10.2070 N   0  0  0  0  0
   20.7930    5.0650   -9.0950 C   0  0  0  0  0
   21.4960    6.3280   -9.5860 C   0  0  0  0  0
   22.5450    6.2560  -10.2220 O   0  0  0  0  0
   21.5700    4.4210   -7.9260 C   0  0  0  0  0
   21.6460    5.3780   -6.7450 C   0  0  0  0  0
   20.8940    3.1310   -7.4850 C   0  0  0  0  0
   20.8800    7.4670   -9.2870 N   0  0  0  0  0
   21.3770    8.7790   -9.6680 C   0  0  0  0  0
   22.5010    9.1590   -8.7270 C   0  0  0  0  0
   22.3900    8.9860   -7.5120 O   0  0  0  0  0
   20.2550    9.8230   -9.6150 C   0  0  0  0  0
   19.3840    9.8950  -10.8770 C   0  0  0  0  0
   18.6600    8.5870  -11.1340 C   0  0  0  0  0
   17.7290    8.6560  -12.2590 N   0  0  0  0  0
   17.0070    7.6290  -12.6960 C   0  0  0  0  0
   16.1850    7.7880  -13.7280 N   0  0  0  0  0
   17.1080    6.4420  -12.1110 N   0  0  0  0  0
   23.5880    9.6520   -9.3030 N   0  0  0  0  0
   24.7790   10.0190   -8.5520 C   0  0  0  0  0
   25.4140   11.2820   -9.1320 C   0  0  0  0  0
   25.1950   11.6280  -10.2960 O   0  0  0  0  0
   25.7910    8.8640   -8.5400 C   0  0  0  0  0
   25.2210    7.5290   -8.0360 C   0  0  0  0  0
   26.2620    6.4190   -8.0330 C   0  0  0  0  0
   25.5850    5.0670   -7.8540 C   0  0  0  0  0
   26.5690    3.9360   -7.8440 N   0  3  0  0  0
   26.1910   11.9700   -8.3040 N   0  0  0  0  0
   26.9280   13.1500   -8.7350 C   0  0  0  0  0
   28.3110   12.7400   -9.2180 C   0  0  0  0  0
   28.9990   11.9340   -8.5890 O   0  0  0  0  0
   27.0420   14.1660   -7.5970 C   0  0  0  0  0
   25.4620   14.7920   -6.9850 S   0  0  0  0  0
   28.7630   13.2070  -10.2570 O   0  0  0  0  0
   26.0274   18.5724  -10.9646 H   0  0  0  0  0
   25.5591   16.9956  -10.6974 H   0  0  0  0  0
   24.4099   18.1951  -10.8292 H   0  0  0  0  0
   25.1708   19.2496   -8.8504 H   0  0  0  0  0
   23.4148   17.6147   -8.6378 H   0  0  0  0  0
   24.5774   17.4375   -7.2292 H   0  0  0  0  0
   26.2515   18.8117   -6.6952 H   0  0  0  0  0
   28.7651   17.3151   -6.8158 H   0  0  0  0  0
   28.1800   18.3594   -5.4740 H   0  0  0  0  0
   30.7458   18.0144   -7.2627 H   0  0  0  0  0
   31.5491   20.7629   -7.0799 H   0  0  0  0  0
   33.1547   18.9157   -6.8949 H   0  0  0  0  0
   32.8213   18.4364   -8.5772 H   0  0  0  0  0
   33.6121   19.9949   -8.2355 H   0  0  0  0  0
   30.1365   18.8914   -9.6686 H   0  0  0  0  0
   30.5083   21.2285  -11.5115 H   0  0  0  0  0
   29.8428   18.6148  -12.7073 H   0  0  0  0  0
   31.4429   18.6692  -11.8495 H   0  0  0  0  0
   30.8584   21.5291  -12.8438 H   0  0  0  0  0
   28.7952   20.5677  -13.5201 H   0  0  0  0  0
   26.1484   20.6302  -12.1702 H   0  0  0  0  0
   25.2909   21.4677  -14.3445 H   0  0  0  0  0
   26.9605   21.3623  -15.0070 H   0  0  0  0  0
   26.4198   23.4744  -14.2620 H   0  0  0  0  0
   28.1313   18.3563  -13.4901 H   0  0  0  0  0
   26.1846   16.8952  -15.0495 H   0  0  0  0  0
   27.9215   15.0136  -14.7885 H   0  0  0  0  0
   28.9304   16.3123  -13.9533 H   0  0  0  0  0
   27.1250   15.5938  -17.1791 H   0  0  0  0  0
   30.4138   17.5185  -15.2114 H   0  0  0  0  0
   28.0101   16.3235  -19.3752 H   0  0  0  0  0
   31.3055   18.2411  -17.4063 H   0  0  0  0  0
   31.0193   18.2170  -19.6006 H   0  0  0  0  0
   24.6464   15.5637  -14.4225 H   0  0  0  0  0
   25.0669   13.9682  -11.8926 H   0  0  0  0  0
   22.4501   14.4118  -13.2803 H   0  0  0  0  0
   23.0812   15.4257  -11.8884 H   0  0  0  0  0
   22.8527   13.7021  -10.3878 H   0  0  0  0  0
   22.7423   12.4452  -11.7130 H   0  0  0  0  0
   21.0533   12.8478   -9.5861 H   0  0  0  0  0
   24.7143   11.6919  -12.1352 H   0  0  0  0  0
   24.2484   10.6289  -14.8915 H   0  0  0  0  0
   26.7869   10.7864  -13.5746 H   0  0  0  0  0
   26.3174   10.1616  -15.2686 H   0  0  0  0  0
   27.5349    8.4613  -14.3790 H   0  0  0  0  0
   25.8182    8.0188  -13.9832 H   0  0  0  0  0
   29.3179    9.1489  -12.6682 H   0  0  0  0  0
   28.3324   10.5885  -12.3113 H   0  0  0  0  0
   28.9650    9.5900  -10.9794 H   0  0  0  0  0
   23.6993    8.3309  -14.9748 H   0  0  0  0  0
   23.0897    7.3401  -12.2511 H   0  0  0  0  0
   21.0175    7.9088  -13.3357 H   0  0  0  0  0
   21.1749    6.0839  -12.9709 H   0  0  0  0  0
   21.6341    7.2277  -15.6553 H   0  0  0  0  0
   19.9497    6.8250  -15.0300 H   0  0  0  0  0
   21.1782    4.5955  -13.6957 H   0  0  0  0  0
   23.2836    5.2855  -11.6787 H   0  0  0  0  0
   24.7084    3.4072  -13.5469 H   0  0  0  0  0
   25.4209    4.2365  -10.7442 H   0  0  0  0  0
   26.4193    4.3937  -12.2854 H   0  0  0  0  0
   26.5326    1.9545  -12.3421 H   0  0  0  0  0
   25.7479    1.9266  -10.7133 H   0  0  0  0  0
   27.1933    4.3175  -10.1989 H   0  0  0  0  0
   23.5640    1.5548  -13.5924 H   0  0  0  0  0
   21.9209    0.0379  -13.0969 H   0  0  0  0  0
   21.9667   -0.8188  -10.6855 H   0  0  0  0  0
   23.2658    0.4272  -10.4106 H   0  0  0  0  0
   22.9170   -1.3348  -13.2167 H   0  0  0  0  0
   20.9588    2.7125  -13.1384 H   0  0  0  0  0
   18.4928    2.3153  -11.6517 H   0  0  0  0  0
   18.9452    3.7205  -12.7687 H   0  0  0  0  0
   21.3548    3.6180  -10.5915 H   0  0  0  0  0
   19.8121    5.3295   -8.7001 H   0  0  0  0  0
   22.5789    4.1983   -8.2732 H   0  0  0  0  0
   22.1576    6.2906   -7.0508 H   0  0  0  0  0
   20.6375    5.6202   -6.4098 H   0  0  0  0  0
   22.1971    4.9062   -5.9315 H   0  0  0  0  0
   19.8770    3.3485   -7.1585 H   0  0  0  0  0
   20.8669    2.4323   -8.3211 H   0  0  0  0  0
   21.4555    2.6915   -6.6606 H   0  0  0  0  0
   20.0082    7.4178   -8.7598 H   0  0  0  0  0
   21.7468    8.7463  -10.6928 H   0  0  0  0  0
   20.7329   10.7963   -9.5039 H   0  0  0  0  0
   19.5981    9.5406   -8.7923 H   0  0  0  0  0
   20.0308   10.1029  -11.7294 H   0  0  0  0  0
   18.6390   10.6781  -10.7360 H   0  0  0  0  0
   18.0823    8.3481  -10.2411 H   0  0  0  0  0
   19.4117    7.8346  -11.3727 H   0  0  0  0  0
   17.6268    9.5499  -12.7396 H   0  0  0  0  0
   15.6345    6.9994  -14.0678 H   0  0  0  0  0
   16.1045    8.6987  -14.1803 H   0  0  0  0  0
   17.7419    6.3145  -11.3221 H   0  0  0  0  0
   23.5898    9.7795  -10.3150 H   0  0  0  0  0
   24.4824   10.2249   -7.5235 H   0  0  0  0  0
   26.5934    9.1477   -7.8589 H   0  0  0  0  0
   26.1113    8.7075   -9.5701 H   0  0  0  0  0
   24.4134    7.2326   -8.7053 H   0  0  0  0  0
   24.8786    7.6735   -7.0113 H   0  0  0  0  0
   26.9571    6.5828   -7.2095 H   0  0  0  0  0
   26.7972    6.4281   -8.9825 H   0  0  0  0  0
   24.9040    4.9159   -8.6916 H   0  0  0  0  0
   25.0659    5.0726   -6.8956 H   0  0  0  0  0
   26.0707    3.0544   -7.7222 H   0  0  0  0  0
   27.0772    3.9213   -8.7282 H   0  0  0  0  0
   27.2263    4.0655   -7.0748 H   0  0  0  0  0
   26.2745   11.6624   -7.3351 H   0  0  0  0  0
   26.3859   13.6216   -9.5547 H   0  0  0  0  0
   28.5236   11.6537   -7.8035 H   0  0  0  0  0
   27.5924   15.0214   -7.9887 H   0  0  0  0  0
   27.5262   13.6568   -6.7638 H   0  0  0  0  0
  1  2  1  0  0  0
  2  3  1  0  0  0
  2  5  1  0  0  0
  3  4  2  0  0  0
  3  7  1  0  0  0
  5  6  1  0  0  0
  6121  1  0  0  0
  7  8  1  0  0  0
  8  9  1  0  0  0
  9 10  2  0  0  0
  9 11  1  0  0  0
 11 12  1  0  0  0
 12 13  1  0  0  0
 12 15  1  0  0  0
 13 14  2  0  0  0
 13 16  1  0  0  0
 16 17  1  0  0  0
 17 18  1  0  0  0
 17 20  1  0  0  0
 18 19  2  0  0  0
 18 24  1  0  0  0
 20 21  1  0  0  0
 21 22  2  0  0  0
 21 23  1  0  0  0
 24 25  1  0  0  0
 25 26  1  0  0  0
 25 28  1  0  0  0
 26 27  2  0  0  0
 26 30  1  0  0  0
 28 29  1  0  0  0
 30 31  1  0  0  0
 31 32  1  0  0  0
 31 34  1  0  0  0
 32 33  2  0  0  0
 32 42  1  0  0  0
 34 35  1  0  0  0
 35 36  4  0  0  0
 35 37  4  0  0  0
 36 38  4  0  0  0
 37 39  4  0  0  0
 38 40  4  0  0  0
 39 40  4  0  0  0
 40 41  1  0  0  0
 42 43  1  0  0  0
 43 44  1  0  0  0
 43 46  1  0  0  0
 44 45  2  0  0  0
 44 51  1  0  0  0
 46 47  1  0  0  0
 47 48  1  0  0  0
 48 49  2  0  0  0
 48 50  1  0  0  0
 51 52  1  0  0  0
 52 53  1  0  0  0
 52 55  1  0  0  0
 53 54  2  0  0  0
 53 59  1  0  0  0
 55 56  1  0  0  0
 56 57  1  0  0  0
 57 58  1  0  0  0
 59 60  1  0  0  0
 60 61  1  0  0  0
 60 63  1  0  0  0
 61 62  2  0  0  0
 61 68  1  0  0  0
 63 64  1  0  0  0
 64 65  1  0  0  0
 65 66  1  0  0  0
 65 67  2  0  0  0
 68 69  1  0  0  0
 69 70  1  0  0  0
 69 72  1  0  0  0
 70 71  2  0  0  0
 70 77  1  0  0  0
 72 73  1  0  0  0
 73 74  1  0  0  0
 74 75  1  0  0  0
 74 76  2  0  0  0
 77 78  1  0  0  0
 78 79  1  0  0  0
 78 81  1  0  0  0
 79 80  2  0  0  0
 79 85  1  0  0  0
 81 82  1  0  0  0
 82 83  1  0  0  0
 82 84  2  0  0  0
 85 86  1  0  0  0
 86 87  1  0  0  0
 87 88  2  0  0  0
 87 89  1  0  0  0
 89 90  1  0  0  0
 90 91  1  0  0  0
 90 93  1  0  0  0
 91 92  2  0  0  0
 91 96  1  0  0  0
 93 94  1  0  0  0
 93 95  1  0  0  0
 96 97  1  0  0  0
 97 98  1  0  0  0
 97100  1  0  0  0
 98 99  2  0  0  0
 98107  1  0  0  0
100101  1  0  0  0
101102  1  0  0  0
102103  1  0  0  0
103104  1  0  0  0
104105  1  0  0  0
104106  2  0  0  0
107108  1  0  0  0
108109  1  0  0  0
108111  1  0  0  0
109110  2  0  0  0
109116  1  0  0  0
111112  1  0  0  0
112113  1  0  0  0
113114  1  0  0  0
114115  1  0  0  0
116117  1  0  0  0
117118  1  0  0  0
117120  1  0  0  0
118119  1  0  0  0
118122  2  0  0  0
120121  1  0  0  0
  1123  1  0  0  0
  1124  1  0  0  0
  1125  1  0  0  0
  2126  1  0  0  0
  5127  1  0  0  0
  5128  1  0  0  0
  7129  1  0  0  0
  8130  1  0  0  0
  8131  1  0  0  0
 11132  1  0  0  0
 12133  1  0  0  0
 15134  1  0  0  0
 15135  1  0  0  0
 15136  1  0  0  0
 16137  1  0  0  0
 17138  1  0  0  0
 20139  1  0  0  0
 20140  1  0  0  0
 23141  1  0  0  0
 24142  1  0  0  0
 25143  1  0  0  0
 28144  1  0  0  0
 28145  1  0  0  0
 29146  1  0  0  0
 30147  1  0  0  0
 31148  1  0  0  0
 34149  1  0  0  0
 34150  1  0  0  0
 36151  1  0  0  0
 37152  1  0  0  0
 38153  1  0  0  0
 39154  1  0  0  0
 41155  1  0  0  0
 42156  1  0  0  0
 43157  1  0  0  0
 46158  1  0  0  0
 46159  1  0  0  0
 47160  1  0  0  0
 47161  1  0  0  0
 50162  1  0  0  0
 51163  1  0  0  0
 52164  1  0  0  0
 55165  1  0  0  0
 55166  1  0  0  0
 56167  1  0  0  0
 56168  1  0  0  0
 58169  1  0  0  0
 58170  1  0  0  0
 58171  1  0  0  0
 59172  1  0  0  0
 60173  1  0  0  0
 63174  1  0  0  0
 63175  1  0  0  0
 64176  1  0  0  0
 64177  1  0  0  0
 66178  1  0  0  0
 68179  1  0  0  0
 69180  1  0  0  0
 72181  1  0  0  0
 72182  1  0  0  0
 73183  1  0  0  0
 73184  1  0  0  0
 75185  1  0  0  0
 77186  1  0  0  0
 78187  1  0  0  0
 81188  1  0  0  0
 81189  1  0  0  0
 83190  1  0  0  0
 85191  1  0  0  0
 86192  1  0  0  0
 86193  1  0  0  0
 89194  1  0  0  0
 90195  1  0  0  0
 93196  1  0  0  0
 94197  1  0  0  0
 94198  1  0  0  0
 94199  1  0  0  0
 95200  1  0  0  0
 95201  1  0  0  0
 95202  1  0  0  0
 96203  1  0  0  0
 97204  1  0  0  0
100205  1  0  0  0
100206  1  0  0  0
101207  1  0  0  0
101208  1  0  0  0
102209  1  0  0  0
102210  1  0  0  0
103211  1  0  0  0
105212  1  0  0  0
105213  1  0  0  0
106214  1  0  0  0
107215  1  0  0  0
108216  1  0  0  0
111217  1  0  0  0
111218  1  0  0  0
112219  1  0  0  0
112220  1  0  0  0
113221  1  0  0  0
113222  1  0  0  0
114223  1  0  0  0
114224  1  0  0  0
115225  1  0  0  0
115226  1  0  0  0
115227  1  0  0  0
116228  1  0  0  0
117229  1  0  0  0
119230  1  0  0  0
120231  1  0  0  0
120232  1  0  0  0
M  END
$$$$
