### 
### Created by X-TOOL on Mon Aug  2 16:11:41 2021
### 

@<TRIPOS>MOLECULE
5v5o_ligand
  130   129     1     0     0
SMALL
GAST_HUCK


@<TRIPOS>ATOM
      1 N          -7.2580   14.8120   -6.8230 N.4       1 GLY         0.2357
      2 CA         -6.6040   14.0640   -5.7650 C.3       1 GLY         0.0545
      3 C          -5.2080   14.5660   -5.4530 C.2       1 GLY         0.2236
      4 O          -4.5030   15.0600   -6.3330 O.2       1 GLY        -0.3910
      5 N          -4.8080   14.4320   -4.1880 N.am      1 GLY        -0.2612
      6 CA         -3.5010   14.8900   -3.7330 C.3       1 GLY         0.1326
      7 C          -2.7080   13.7110   -3.1830 C.2       1 GLY         0.2041
      8 O          -2.0930   13.8010   -2.1160 O.2       1 GLY        -0.3944
      9 CB         -3.6620   15.9920   -2.6780 C.3       1 GLY        -0.0008
     10 CG         -2.4070   16.8130   -2.3900 C.3       1 GLY         0.0044
     11 CD         -1.8160   16.5210   -1.0210 C.2       1 GLY         0.0350
     12 OE1        -0.5730   16.4970   -0.8980 O.co2     1 GLY        -0.5690
     13 OE2        -2.5980   16.3100   -0.0700 O.co2     1 GLY        -0.5690
     14 N          -2.7260   12.5920   -3.8960 N.am      1 GLY        -0.2616
     15 CA         -2.0300   11.3920   -3.4590 C.3       1 GLY         0.1476
     16 C          -0.7590   11.2110   -4.2770 C.2       1 GLY         0.2061
     17 O          -0.7300   11.5070   -5.4760 O.2       1 GLY        -0.3942
     18 CB         -2.9260   10.1610   -3.5890 C.3       1 GLY         0.0773
     19 CG         -2.5510    9.0650   -2.6140 C.2       1 GLY         0.1780
     20 OD1        -1.4190    9.0070   -2.1330 O.2       1 GLY        -0.3970
     21 ND2        -3.5030    8.1910   -2.3140 N.am      1 GLY        -0.3007
     22 N           0.2950   10.7300   -3.6180 N.am      1 GLY        -0.2663
     23 CA          1.5850   10.6420   -4.2780 C.3       1 GLY         0.1201
     24 C           1.5990    9.6540   -5.4280 C.2       1 GLY         0.2007
     25 O           2.1840    9.9240   -6.4810 O.2       1 GLY        -0.3947
     26 N           0.9660    8.4970   -5.2450 N.am      1 GLY        -0.2640
     27 CA          0.9960    7.4370   -6.2400 C.3       1 GLY         0.1311
     28 C          -0.3940    6.8370   -6.3950 C.2       1 GLY         0.2039
     29 O          -1.1680    6.7670   -5.4370 O.2       1 GLY        -0.3944
     30 CB          1.9880    6.3290   -5.8620 C.3       1 GLY        -0.0092
     31 CG          3.2770    6.8190   -5.2260 C.3       1 GLY        -0.0156
     32 CD          4.1300    5.6510   -4.7880 C.3       1 GLY         0.0627
     33 NE          5.0290    5.9900   -3.6920 N.pl3     1 GLY        -0.2723
     34 CZ          6.2960    6.3510   -3.8540 C.cat     1 GLY         0.2882
     35 NH1         6.8110    6.4230   -5.0730 N.pl3     1 GLY        -0.2849
     36 NH2         7.0450    6.6390   -2.7990 N.pl3     1 GLY        -0.2849
     37 N          -0.7030    6.4040   -7.6140 N.am      1 GLY        -0.2637
     38 CA         -1.9290    5.6740   -7.9080 C.3       1 GLY         0.1310
     39 C          -1.5660    4.2810   -8.3920 C.2       1 GLY         0.2040
     40 O          -0.6640    4.1250   -9.2210 O.2       1 GLY        -0.3944
     41 CB         -2.7810    6.3680   -8.9760 C.3       1 GLY        -0.0122
     42 CG         -3.4000    7.6820   -8.5710 C.3       1 GLY        -0.0440
     43 CD         -4.3890    8.1500   -9.6300 C.3       1 GLY        -0.0124
     44 CE         -3.7040    8.5370  -10.9280 C.3       1 GLY        -0.0354
     45 NZ         -4.6630    9.1040  -11.9160 N.4       1 GLY         0.2185
     46 N          -2.2630    3.2740   -7.8790 N.am      1 GLY        -0.2613
     47 CA         -2.1870    1.9390   -8.4490 C.3       1 GLY         0.1564
     48 C          -3.2610    1.7930   -9.5210 C.2       1 GLY         0.2059
     49 O          -4.3370    2.3920   -9.4340 O.2       1 GLY        -0.3943
     50 CB         -2.3490    0.8610   -7.3700 C.3       1 GLY         0.0924
     51 OG1        -1.9960   -0.4190   -7.9120 O.3       1 GLY        -0.3874
     52 CG2        -3.7820    0.8070   -6.8570 C.3       1 GLY        -0.0346
     53 N          -2.9500    1.0190  -10.5560 N.am      1 GLY        -0.2694
     54 CA         -3.9360    0.7840  -11.6060 C.3       1 GLY         0.0945
     55 C          -4.4910   -0.6320  -11.5310 C.2       1 GLY         0.0601
     56 O          -3.7630   -1.6070  -11.7140 O.co2     1 GLY        -0.5666
     57 CB         -3.3500    1.0300  -12.9980 C.3       1 GLY        -0.0148
     58 CG         -4.4390    1.0960  -14.0560 C.3       1 GLY        -0.0162
     59 CD         -3.9350    0.9570  -15.4790 C.3       1 GLY         0.0627
     60 NE         -5.0610    0.9980  -16.4100 N.pl3     1 GLY        -0.2723
     61 CZ         -4.9790    0.7500  -17.7130 C.cat     1 GLY         0.2882
     62 NH1        -6.0680    0.8160  -18.4690 N.pl3     1 GLY        -0.2849
     63 NH2        -3.8150    0.4340  -18.2620 N.pl3     1 GLY        -0.2849
     64 OXT        -5.6840   -0.8260  -11.2960 O.co2     1 GLY        -0.5666
     65 H1         -8.1780   14.4325   -6.9835 H         1 GLY         0.2012
     66 H2         -6.7140   14.7433   -7.6688 H         1 GLY         0.2012
     67 H3         -7.3363   15.7796   -6.5515 H         1 GLY         0.2012
     68 H4         -6.5357   13.0102   -6.0728 H         1 GLY         0.1061
     69 H5         -7.2149   14.1410   -4.8535 H         1 GLY         0.1061
     70 H6         -5.4257   14.0027   -3.5290 H         1 GLY         0.1884
     71 H7         -2.9550   15.3083   -4.5914 H         1 GLY         0.0801
     72 H8         -3.9800   15.5177   -1.7379 H         1 GLY         0.0330
     73 H9         -4.4460   16.6813   -3.0245 H         1 GLY         0.0330
     74 H10        -2.6658   17.8809   -2.4409 H         1 GLY         0.0433
     75 H11        -1.6519   16.5818   -3.1557 H         1 GLY         0.0433
     76 H12        -3.2324   12.5733   -4.7581 H         1 GLY         0.1885
     77 H13        -1.7547   11.5119   -2.4008 H         1 GLY         0.0826
     78 H14        -2.8386    9.7676   -4.6125 H         1 GLY         0.0551
     79 H15        -3.9671   10.4609   -3.3991 H         1 GLY         0.0551
     80 H16        -3.3137    7.4450   -1.6755 H         1 GLY         0.1814
     81 H17        -4.4098    8.2782   -2.7263 H         1 GLY         0.1814
     82 H18         0.1972   10.4298   -2.6691 H         1 GLY         0.1881
     83 H19         2.3361   10.3284   -3.5381 H         1 GLY         0.0763
     84 H20         1.8473   11.6366   -4.6679 H         1 GLY         0.0763
     85 H21         0.4546    8.3527   -4.3979 H         1 GLY         0.1883
     86 H22         1.3067    7.8711   -7.2018 H         1 GLY         0.0800
     87 H23         2.2466    5.7745   -6.7761 H         1 GLY         0.0313
     88 H24         1.4911    5.6526   -5.1510 H         1 GLY         0.0313
     89 H25         3.0353    7.4390   -4.3501 H         1 GLY         0.0301
     90 H26         3.8358    7.4205   -5.9581 H         1 GLY         0.0301
     91 H27         4.7316    5.3138   -5.6449 H         1 GLY         0.0689
     92 H28         3.4684    4.8354   -4.4608 H         1 GLY         0.0689
     93 H29         4.6581    5.9467   -2.7321 H         1 GLY         0.2642
     94 H30         7.7939    6.7029   -5.2011 H         1 GLY         0.2615
     95 H31         6.2283    6.1991   -5.8923 H         1 GLY         0.2615
     96 H32         6.6440    6.5828   -1.8519 H         1 GLY         0.2615
     97 H33         8.0280    6.9190   -2.9263 H         1 GLY         0.2615
     98 H34        -0.0653    6.5877   -8.3621 H         1 GLY         0.1883
     99 H35        -2.5210    5.5952   -6.9842 H         1 GLY         0.0800
    100 H36        -3.5954    5.6834   -9.2553 H         1 GLY         0.0312
    101 H37        -2.1406    6.5524   -9.8511 H         1 GLY         0.0312
    102 H38        -2.6075    8.4362   -8.4563 H         1 GLY         0.0269
    103 H39        -3.9267    7.5551   -7.6137 H         1 GLY         0.0269
    104 H40        -4.9338    9.0240   -9.2435 H         1 GLY         0.0317
    105 H41        -5.0998    7.3358   -9.8344 H         1 GLY         0.0317
    106 H42        -3.2339    7.6423  -11.3622 H         1 GLY         0.0813
    107 H43        -2.9309    9.2889  -10.7114 H         1 GLY         0.0813
    108 H44        -4.1702    9.3473  -12.7610 H         1 GLY         0.1994
    109 H45        -5.0951    9.9287  -11.5297 H         1 GLY         0.1994
    110 H46        -5.3728    8.4198  -12.1261 H         1 GLY         0.1994
    111 H47        -2.8506    3.4369   -7.0864 H         1 GLY         0.1884
    112 H48        -1.1999    1.8129   -8.9178 H         1 GLY         0.0826
    113 H49        -1.6785    1.0961   -6.5303 H         1 GLY         0.0639
    114 H50        -2.0973   -1.0844   -7.2416 H         1 GLY         0.2101
    115 H51        -3.8664    0.0266   -6.0864 H         1 GLY         0.0257
    116 H52        -4.4613    0.5744   -7.6903 H         1 GLY         0.0257
    117 H53        -4.0533    1.7809   -6.4236 H         1 GLY         0.0257
    118 H54        -2.0442    0.5995  -10.6149 H         1 GLY         0.1875
    119 H55        -4.7663    1.4892  -11.4534 H         1 GLY         0.0726
    120 H56        -2.6601    0.2098  -13.2457 H         1 GLY         0.0307
    121 H57        -2.7999    1.9825  -12.9912 H         1 GLY         0.0307
    122 H58        -4.9499    2.0659  -13.9646 H         1 GLY         0.0301
    123 H59        -5.1560    0.2843  -13.8636 H         1 GLY         0.0301
    124 H60        -3.4067   -0.0017  -15.5872 H         1 GLY         0.0689
    125 H61        -3.2449    1.7834  -15.7042 H         1 GLY         0.0689
    126 H62        -5.9871    1.2369  -16.0277 H         1 GLY         0.2642
    127 H63        -6.0061    0.6241  -19.4791 H         1 GLY         0.2615
    128 H64        -6.9749    1.0591  -18.0456 H         1 GLY         0.2615
    129 H65        -2.9677    0.3818  -17.6787 H         1 GLY         0.2615
    130 H66        -3.7576    0.2406  -19.2721 H         1 GLY         0.2615
@<TRIPOS>BOND
     1    1    2 1  
     2    2    3 1  
     3    3    4 2  
     4    3    5 am 
     5    5    6 1  
     6    6    7 1  
     7    6    9 1  
     8    7    8 2  
     9    7   14 am 
    10    9   10 1  
    11   10   11 1  
    12   11   12 ar 
    13   11   13 ar 
    14   14   15 1  
    15   15   16 1  
    16   15   18 1  
    17   16   17 2  
    18   16   22 am 
    19   18   19 1  
    20   19   20 2  
    21   19   21 am 
    22   22   23 1  
    23   23   24 1  
    24   24   25 2  
    25   24   26 am 
    26   26   27 1  
    27   27   28 1  
    28   27   30 1  
    29   28   29 2  
    30   28   37 am 
    31   30   31 1  
    32   31   32 1  
    33   32   33 1  
    34   33   34 ar 
    35   34   35 ar 
    36   34   36 ar 
    37   37   38 1  
    38   38   39 1  
    39   38   41 1  
    40   39   40 2  
    41   39   46 am 
    42   41   42 1  
    43   42   43 1  
    44   43   44 1  
    45   44   45 1  
    46   46   47 1  
    47   47   48 1  
    48   47   50 1  
    49   48   49 2  
    50   48   53 am 
    51   50   51 1  
    52   50   52 1  
    53   53   54 1  
    54   54   55 1  
    55   54   57 1  
    56   55   56 ar 
    57   55   64 ar 
    58   57   58 1  
    59   58   59 1  
    60   59   60 1  
    61   60   61 ar 
    62   61   62 ar 
    63   61   63 ar 
    64    1   65 1  
    65    1   66 1  
    66    1   67 1  
    67    2   68 1  
    68    2   69 1  
    69    5   70 1  
    70    6   71 1  
    71    9   72 1  
    72    9   73 1  
    73   10   74 1  
    74   10   75 1  
    75   14   76 1  
    76   15   77 1  
    77   18   78 1  
    78   18   79 1  
    79   21   80 1  
    80   21   81 1  
    81   22   82 1  
    82   23   83 1  
    83   23   84 1  
    84   26   85 1  
    85   27   86 1  
    86   30   87 1  
    87   30   88 1  
    88   31   89 1  
    89   31   90 1  
    90   32   91 1  
    91   32   92 1  
    92   33   93 1  
    93   35   94 1  
    94   35   95 1  
    95   36   96 1  
    96   36   97 1  
    97   37   98 1  
    98   38   99 1  
    99   41  100 1  
   100   41  101 1  
   101   42  102 1  
   102   42  103 1  
   103   43  104 1  
   104   43  105 1  
   105   44  106 1  
   106   44  107 1  
   107   45  108 1  
   108   45  109 1  
   109   45  110 1  
   110   46  111 1  
   111   47  112 1  
   112   50  113 1  
   113   51  114 1  
   114   52  115 1  
   115   52  116 1  
   116   52  117 1  
   117   53  118 1  
   118   54  119 1  
   119   57  120 1  
   120   57  121 1  
   121   58  122 1  
   122   58  123 1  
   123   59  124 1  
   124   59  125 1  
   125   60  126 1  
   126   62  127 1  
   127   62  128 1  
   128   63  129 1  
   129   63  130 1  
@<TRIPOS>SUBSTRUCTURE
     1 GLY         1

