5v5o_ligand
  -I-interpret- 

130129  0  0  0  0  0  0  0  0999 V2000
   -7.2580   14.8120   -6.8230 N   0  3  0  0  0
   -6.6040   14.0640   -5.7650 C   0  0  0  0  0
   -5.2080   14.5660   -5.4530 C   0  0  0  0  0
   -4.5030   15.0600   -6.3330 O   0  0  0  0  0
   -4.8080   14.4320   -4.1880 N   0  0  0  0  0
   -3.5010   14.8900   -3.7330 C   0  0  0  0  0
   -2.7080   13.7110   -3.1830 C   0  0  0  0  0
   -2.0930   13.8010   -2.1160 O   0  0  0  0  0
   -3.6620   15.9920   -2.6780 C   0  0  0  0  0
   -2.4070   16.8130   -2.3900 C   0  0  0  0  0
   -1.8160   16.5210   -1.0210 C   0  0  0  0  0
   -0.5730   16.4970   -0.8980 O   0  0  0  0  0
   -2.5980   16.3100   -0.0700 O   0  0  0  0  0
   -2.7260   12.5920   -3.8960 N   0  0  0  0  0
   -2.0300   11.3920   -3.4590 C   0  0  0  0  0
   -0.7590   11.2110   -4.2770 C   0  0  0  0  0
   -0.7300   11.5070   -5.4760 O   0  0  0  0  0
   -2.9260   10.1610   -3.5890 C   0  0  0  0  0
   -2.5510    9.0650   -2.6140 C   0  0  0  0  0
   -1.4190    9.0070   -2.1330 O   0  0  0  0  0
   -3.5030    8.1910   -2.3140 N   0  0  0  0  0
    0.2950   10.7300   -3.6180 N   0  0  0  0  0
    1.5850   10.6420   -4.2780 C   0  0  0  0  0
    1.5990    9.6540   -5.4280 C   0  0  0  0  0
    2.1840    9.9240   -6.4810 O   0  0  0  0  0
    0.9660    8.4970   -5.2450 N   0  0  0  0  0
    0.9960    7.4370   -6.2400 C   0  0  0  0  0
   -0.3940    6.8370   -6.3950 C   0  0  0  0  0
   -1.1680    6.7670   -5.4370 O   0  0  0  0  0
    1.9880    6.3290   -5.8620 C   0  0  0  0  0
    3.2770    6.8190   -5.2260 C   0  0  0  0  0
    4.1300    5.6510   -4.7880 C   0  0  0  0  0
    5.0290    5.9900   -3.6920 N   0  0  0  0  0
    6.2960    6.3510   -3.8540 C   0  0  0  0  0
    6.8110    6.4230   -5.0730 N   0  0  0  0  0
    7.0450    6.6390   -2.7990 N   0  0  0  0  0
   -0.7030    6.4040   -7.6140 N   0  0  0  0  0
   -1.9290    5.6740   -7.9080 C   0  0  0  0  0
   -1.5660    4.2810   -8.3920 C   0  0  0  0  0
   -0.6640    4.1250   -9.2210 O   0  0  0  0  0
   -2.7810    6.3680   -8.9760 C   0  0  0  0  0
   -3.4000    7.6820   -8.5710 C   0  0  0  0  0
   -4.3890    8.1500   -9.6300 C   0  0  0  0  0
   -3.7040    8.5370  -10.9280 C   0  0  0  0  0
   -4.6630    9.1040  -11.9160 N   0  3  0  0  0
   -2.2630    3.2740   -7.8790 N   0  0  0  0  0
   -2.1870    1.9390   -8.4490 C   0  0  0  0  0
   -3.2610    1.7930   -9.5210 C   0  0  0  0  0
   -4.3370    2.3920   -9.4340 O   0  0  0  0  0
   -2.3490    0.8610   -7.3700 C   0  0  0  0  0
   -1.9960   -0.4190   -7.9120 O   0  0  0  0  0
   -3.7820    0.8070   -6.8570 C   0  0  0  0  0
   -2.9500    1.0190  -10.5560 N   0  0  0  0  0
   -3.9360    0.7840  -11.6060 C   0  0  0  0  0
   -4.4910   -0.6320  -11.5310 C   0  0  0  0  0
   -3.7630   -1.6070  -11.7140 O   0  0  0  0  0
   -3.3500    1.0300  -12.9980 C   0  0  0  0  0
   -4.4390    1.0960  -14.0560 C   0  0  0  0  0
   -3.9350    0.9570  -15.4790 C   0  0  0  0  0
   -5.0610    0.9980  -16.4100 N   0  0  0  0  0
   -4.9790    0.7500  -17.7130 C   0  0  0  0  0
   -6.0680    0.8160  -18.4690 N   0  0  0  0  0
   -3.8150    0.4340  -18.2620 N   0  0  0  0  0
   -5.6840   -0.8260  -11.2960 O   0  0  0  0  0
   -8.1887   14.4272   -6.9845 H   0  0  0  0  0
   -7.3367   15.7908   -6.5471 H   0  0  0  0  0
   -6.7066   14.7418   -7.6783 H   0  0  0  0  0
   -6.5162   13.0297   -6.0977 H   0  0  0  0  0
   -7.2044   14.1756   -4.8621 H   0  0  0  0  0
   -5.4380   13.9941   -3.5159 H   0  0  0  0  0
   -2.9515   15.3122   -4.5744 H   0  0  0  0  0
   -3.9280   15.4935   -1.7459 H   0  0  0  0  0
   -4.4062   16.6875   -3.0661 H   0  0  0  0  0
   -2.6833   17.8670   -2.4171 H   0  0  0  0  0
   -1.6589   16.5544   -3.1394 H   0  0  0  0  0
   -0.1649   16.6845   -1.7465 H   0  0  0  0  0
   -3.2425   12.5729   -4.7753 H   0  0  0  0  0
   -1.7679   11.5053   -2.4071 H   0  0  0  0  0
   -2.8110    9.7666   -4.5986 H   0  0  0  0  0
   -3.9500   10.4663   -3.3740 H   0  0  0  0  0
   -3.3109    7.4319   -1.6603 H   0  0  0  0  0
   -4.4270    8.2781   -2.7370 H   0  0  0  0  0
    0.1952   10.4238   -2.6502 H   0  0  0  0  0
    2.3118   10.3017   -3.5403 H   0  0  0  0  0
    1.8168   11.6265   -4.6845 H   0  0  0  0  0
    0.4444    8.3498   -4.3809 H   0  0  0  0  0
    1.3228    7.8773   -7.1820 H   0  0  0  0  0
    2.2639    5.8220   -6.7866 H   0  0  0  0  0
    1.4916    5.6973   -5.1254 H   0  0  0  0  0
    3.0328    7.4253   -4.3537 H   0  0  0  0  0
    3.8312    7.4069   -5.9577 H   0  0  0  0  0
    4.7396    5.3447   -5.6381 H   0  0  0  0  0
    3.4633    4.8613   -4.4416 H   0  0  0  0  0
    4.6617    5.9472   -2.7414 H   0  0  0  0  0
    6.2340    6.2012   -5.8843 H   0  0  0  0  0
    8.0185    6.9163   -2.9250 H   0  0  0  0  0
    6.6479    6.5834   -1.8611 H   0  0  0  0  0
   -0.0526    6.5914   -8.3771 H   0  0  0  0  0
   -2.5191    5.6327   -6.9925 H   0  0  0  0  0
   -3.6082    5.6931   -9.1959 H   0  0  0  0  0
   -2.1124    6.5867   -9.8086 H   0  0  0  0  0
   -2.6126    8.4283   -8.4653 H   0  0  0  0  0
   -3.9268    7.5505   -7.6259 H   0  0  0  0  0
   -4.9052    9.0295   -9.2451 H   0  0  0  0  0
   -5.0726    7.3276   -9.8408 H   0  0  0  0  0
   -3.2594    7.6403  -11.3598 H   0  0  0  0  0
   -2.9547    9.2965  -10.7051 H   0  0  0  0  0
   -4.1633    9.3498  -12.7706 H   0  0  0  0  0
   -5.3807    8.4108  -12.1278 H   0  0  0  0  0
   -5.0996    9.9384  -11.5240 H   0  0  0  0  0
   -2.8624    3.4402   -7.0706 H   0  0  0  0  0
   -1.2027    1.8022   -8.8969 H   0  0  0  0  0
   -1.6909    1.1125   -6.5383 H   0  0  0  0  0
   -2.0984   -1.0914   -7.2345 H   0  0  0  0  0
   -4.0496    1.7726   -6.4279 H   0  0  0  0  0
   -4.4540    0.5765   -7.6836 H   0  0  0  0  0
   -3.8643    0.0334   -6.0936 H   0  0  0  0  0
   -2.0260    0.5911  -10.6161 H   0  0  0  0  0
   -4.7464    1.4941  -11.4414 H   0  0  0  0  0
   -2.6807    0.2050  -13.2420 H   0  0  0  0  0
   -2.8208    1.9829  -12.9868 H   0  0  0  0  0
   -4.9057    2.0777  -13.9753 H   0  0  0  0  0
   -5.1158    0.2615  -13.8724 H   0  0  0  0  0
   -3.4143    0.0053  -15.5853 H   0  0  0  0  0
   -3.2536    1.7782  -15.7015 H   0  0  0  0  0
   -5.9781    1.2346  -16.0314 H   0  0  0  0  0
   -6.0071    0.6238  -19.4689 H   0  0  0  0  0
   -6.9657    1.0589  -18.0501 H   0  0  0  0  0
   -2.9763    0.3802  -17.6839 H   0  0  0  0  0
   -6.1266    0.0174  -11.1757 H   0  0  0  0  0
  1  2  1  0  0  0
  2  3  1  0  0  0
  3  4  2  0  0  0
  3  5  1  0  0  0
  5  6  1  0  0  0
  6  7  1  0  0  0
  6  9  1  0  0  0
  7  8  2  0  0  0
  7 14  1  0  0  0
  9 10  1  0  0  0
 10 11  1  0  0  0
 11 12  1  0  0  0
 11 13  2  0  0  0
 14 15  1  0  0  0
 15 16  1  0  0  0
 15 18  1  0  0  0
 16 17  2  0  0  0
 16 22  1  0  0  0
 18 19  1  0  0  0
 19 20  2  0  0  0
 19 21  1  0  0  0
 22 23  1  0  0  0
 23 24  1  0  0  0
 24 25  2  0  0  0
 24 26  1  0  0  0
 26 27  1  0  0  0
 27 28  1  0  0  0
 27 30  1  0  0  0
 28 29  2  0  0  0
 28 37  1  0  0  0
 30 31  1  0  0  0
 31 32  1  0  0  0
 32 33  1  0  0  0
 33 34  1  0  0  0
 34 35  2  0  0  0
 34 36  1  0  0  0
 37 38  1  0  0  0
 38 39  1  0  0  0
 38 41  1  0  0  0
 39 40  2  0  0  0
 39 46  1  0  0  0
 41 42  1  0  0  0
 42 43  1  0  0  0
 43 44  1  0  0  0
 44 45  1  0  0  0
 46 47  1  0  0  0
 47 48  1  0  0  0
 47 50  1  0  0  0
 48 49  2  0  0  0
 48 53  1  0  0  0
 50 51  1  0  0  0
 50 52  1  0  0  0
 53 54  1  0  0  0
 54 55  1  0  0  0
 54 57  1  0  0  0
 55 56  2  0  0  0
 55 64  1  0  0  0
 57 58  1  0  0  0
 58 59  1  0  0  0
 59 60  1  0  0  0
 60 61  1  0  0  0
 61 62  1  0  0  0
 61 63  2  0  0  0
  1 65  1  0  0  0
  1 66  1  0  0  0
  1 67  1  0  0  0
  2 68  1  0  0  0
  2 69  1  0  0  0
  5 70  1  0  0  0
  6 71  1  0  0  0
  9 72  1  0  0  0
  9 73  1  0  0  0
 10 74  1  0  0  0
 10 75  1  0  0  0
 12 76  1  0  0  0
 14 77  1  0  0  0
 15 78  1  0  0  0
 18 79  1  0  0  0
 18 80  1  0  0  0
 21 81  1  0  0  0
 21 82  1  0  0  0
 22 83  1  0  0  0
 23 84  1  0  0  0
 23 85  1  0  0  0
 26 86  1  0  0  0
 27 87  1  0  0  0
 30 88  1  0  0  0
 30 89  1  0  0  0
 31 90  1  0  0  0
 31 91  1  0  0  0
 32 92  1  0  0  0
 32 93  1  0  0  0
 33 94  1  0  0  0
 35 95  1  0  0  0
 36 96  1  0  0  0
 36 97  1  0  0  0
 37 98  1  0  0  0
 38 99  1  0  0  0
 41100  1  0  0  0
 41101  1  0  0  0
 42102  1  0  0  0
 42103  1  0  0  0
 43104  1  0  0  0
 43105  1  0  0  0
 44106  1  0  0  0
 44107  1  0  0  0
 45108  1  0  0  0
 45109  1  0  0  0
 45110  1  0  0  0
 46111  1  0  0  0
 47112  1  0  0  0
 50113  1  0  0  0
 51114  1  0  0  0
 52115  1  0  0  0
 52116  1  0  0  0
 52117  1  0  0  0
 53118  1  0  0  0
 54119  1  0  0  0
 57120  1  0  0  0
 57121  1  0  0  0
 58122  1  0  0  0
 58123  1  0  0  0
 59124  1  0  0  0
 59125  1  0  0  0
 60126  1  0  0  0
 62127  1  0  0  0
 62128  1  0  0  0
 63129  1  0  0  0
 64130  1  0  0  0
M  END
$$$$
