4xya_ligand
  -I-interpret- 

 27 30  0  0  0  0  0  0  0  0999 V2000
   -7.1090   15.9250   -0.0290 C   0  0  0  0  0
   -8.4760   15.5060    0.2030 C   0  0  0  0  0
   -9.1410   15.5770    1.3940 C   0  0  0  0  0
  -10.4650   14.4760   -0.7140 C   0  0  0  0  0
   -9.5800   15.7690    3.6160 C   0  0  0  0  0
  -10.9540   15.4040    2.9680 C   0  0  0  0  0
  -10.5150   15.1680    1.5320 C   0  0  0  0  0
  -11.1850   14.6120    0.4500 C   0  0  0  0  0
   -9.1790   14.9060   -0.8850 C   0  0  0  0  0
   -4.3510   16.6740   -0.5120 N   0  0  0  0  0
   -4.8350   18.3530    1.1790 N   0  0  0  0  0
   -6.5270   16.9620    0.7150 C   0  0  0  0  0
   -7.0140   17.8370    1.7220 N   0  0  0  0  0
  -11.2860   13.6130   -2.2670 Br  0  0  0  0  0
   -8.5790   15.8600    2.5670 O   0  0  0  0  0
   -6.4090   15.2580   -0.9870 N   0  0  0  0  0
   -5.0540   15.6660   -1.1730 C   0  0  0  0  0
   -4.3080   14.9580   -2.1400 N   0  0  0  0  0
   -5.1560   17.2870    0.4010 C   0  0  0  0  0
   -5.9440   18.6470    1.9550 C   0  0  0  0  0
   -9.4019   15.9289    4.6794 H   0  0  0  0  0
  -11.9448   15.3375    3.4175 H   0  0  0  0  0
  -12.2270   14.2997    0.5196 H   0  0  0  0  0
   -8.6900   14.7908   -1.8523 H   0  0  0  0  0
   -3.3316   15.2002   -2.3086 H   0  0  0  0  0
   -4.7454   14.2043   -2.6701 H   0  0  0  0  0
   -5.9591   19.4546    2.6869 H   0  0  0  0  0
  1  2  1  0  0  0
 12  1  4  0  0  0
  1 16  4  0  0  0
  2  3  4  0  0  0
  2  9  4  0  0  0
  3  7  4  0  0  0
  3 15  4  0  0  0
  4  8  4  0  0  0
  9  4  4  0  0  0
  4 14  1  0  0  0
  5  6  4  0  0  0
 15  5  4  0  0  0
  7  6  4  0  0  0
  7  8  4  0  0  0
 10 17  4  0  0  0
 19 10  4  0  0  0
 19 11  4  0  0  0
 11 20  4  0  0  0
 12 13  4  0  0  0
 12 19  4  0  0  0
 13 20  4  0  0  0
 16 17  4  0  0  0
 17 18  1  0  0  0
  5 21  1  0  0  0
  6 22  1  0  0  0
  8 23  1  0  0  0
  9 24  1  0  0  0
 18 25  1  0  0  0
 18 26  1  0  0  0
 20 27  1  0  0  0
M  END
$$$$
