### 
### Created by X-TOOL on Mon Sep 10 21:12:51 2018
### 

@<TRIPOS>MOLECULE
1sje_ligand
  215   217     1     0     0
SMALL
GAST_HUCK


@<TRIPOS>ATOM
      1 N         127.4400   52.6790  -20.4400 N.4       1 PRO         0.2461
      2 CA        128.8210   53.1240  -20.1450 C.3       1 PRO         0.0670
      3 C         129.1820   52.7090  -18.7200 C.2       1 PRO         0.2268
      4 O         128.3810   52.8730  -17.7960 O.2       1 PRO        -0.3907
      5 CB        128.8470   54.6450  -20.2710 C.3       1 PRO         0.0127
      6 CG        127.5420   54.9380  -21.0190 C.3       1 PRO        -0.0053
      7 CD        126.5630   53.8550  -20.5500 C.3       1 PRO        -0.0313
      8 N         130.3890   52.1790  -18.5450 N.am      1 GLU        -0.2609
      9 CA        130.8380   51.7450  -17.2290 C.3       1 GLU         0.1326
     10 C         131.9000   52.6490  -16.6040 C.2       1 GLU         0.2040
     11 O         132.8560   53.0530  -17.2670 O.2       1 GLU        -0.3944
     12 CB        131.3750   50.3190  -17.3080 C.3       1 GLU        -0.0008
     13 CG        132.0460   49.8490  -16.0380 C.3       1 GLU         0.0044
     14 CD        132.4060   48.3790  -16.0850 C.2       1 GLU         0.0350
     15 OE1       133.0870   47.8950  -15.1560 O.co2     1 GLU        -0.5690
     16 OE2       132.0040   47.7010  -17.0510 O.co2     1 GLU        -0.5690
     17 N         131.7120   52.9810  -15.3270 N.am      1 VAL        -0.2635
     18 CA        132.6920   53.7880  -14.5990 C.3       1 VAL         0.1332
     19 C         133.7800   52.7970  -14.1810 C.2       1 VAL         0.2042
     20 O         133.4870   51.7870  -13.5440 O.2       1 VAL        -0.3944
     21 CB        132.0870   54.4250  -13.3280 C.3       1 VAL        -0.0063
     22 CG1       133.1930   55.0580  -12.4890 C.3       1 VAL        -0.0584
     23 CG2       131.0460   55.4770  -13.7090 C.3       1 VAL        -0.0584
     24 N         135.0270   53.0840  -14.5510 N.am      1 ILE        -0.2634
     25 CA        136.1450   52.2010  -14.2320 C.3       1 ILE         0.1337
     26 C         136.9650   52.6780  -13.0430 C.2       1 ILE         0.2067
     27 O         137.3650   53.8420  -12.9680 O.2       1 ILE        -0.3942
     28 CB        137.0860   52.0330  -15.4560 C.3       1 ILE        -0.0037
     29 CG1       136.5630   50.9260  -16.3710 C.3       1 ILE        -0.0491
     30 CG2       138.4920   51.6920  -15.0060 C.3       1 ILE        -0.0582
     31 CD1       135.2160   51.2060  -16.9750 C.3       1 ILE        -0.0648
     32 N         137.2430   51.7700  -12.0990 N.am      1 PRO        -0.2498
     33 CA        138.0210   52.1040  -10.9090 C.3       1 PRO         0.1338
     34 C         139.5110   51.8670  -11.0810 C.2       1 PRO         0.2041
     35 O         139.9330   51.1050  -11.9530 O.2       1 PRO        -0.3944
     36 CB        137.4600   51.1510   -9.8770 C.3       1 PRO        -0.0104
     37 CG        137.3360   49.8960  -10.7040 C.3       1 PRO        -0.0281
     38 CD        136.6810   50.4130  -11.9790 C.3       1 PRO         0.0369
     39 N         140.2910   52.5390  -10.2370 N.am      1 MET        -0.2637
     40 CA        141.7350   52.3630  -10.1880 C.3       1 MET         0.1317
     41 C         141.8780   51.2640   -9.1330 C.2       1 MET         0.2040
     42 O         141.1290   51.2580   -8.1500 O.2       1 MET        -0.3944
     43 CB        142.4220   53.6350   -9.6870 C.3       1 MET        -0.0034
     44 CG        142.6010   54.7030  -10.7450 C.3       1 MET        -0.0024
     45 SD        143.7220   54.1540  -12.0380 S.3       1 MET        -0.1639
     46 CE        145.2780   54.6840  -11.3710 C.3       1 MET        -0.0181
     47 N         142.8130   50.3380   -9.3190 N.am      1 PHE        -0.2619
     48 CA        142.9810   49.2650   -8.3430 C.3       1 PHE         0.1404
     49 C         144.1230   49.5360   -7.3740 C.2       1 PHE         0.2060
     50 O         145.1820   50.0230   -7.7600 O.2       1 PHE        -0.3942
     51 CB        143.1750   47.9230   -9.0610 C.3       1 PHE         0.0214
     52 CG        141.9580   47.4770   -9.8410 C.ar      1 PHE        -0.0386
     53 CD1       140.8030   47.0510   -9.1750 C.ar      1 PHE        -0.0601
     54 CD2       141.9540   47.5100  -11.2420 C.ar      1 PHE        -0.0601
     55 CE1       139.6580   46.6640   -9.8850 C.ar      1 PHE        -0.0686
     56 CE2       140.8130   47.1260  -11.9700 C.ar      1 PHE        -0.0686
     57 CZ        139.6600   46.7010  -11.2900 C.ar      1 PHE        -0.0687
     58 N         143.8790   49.2260   -6.1060 N.am      1 SER        -0.2614
     59 CA        144.8500   49.4300   -5.0400 C.3       1 SER         0.1539
     60 C         146.1200   48.6140   -5.2290 C.2       1 SER         0.2062
     61 O         146.0730   47.4590   -5.6420 O.2       1 SER        -0.3943
     62 CB        144.2320   49.0460   -3.6930 C.3       1 SER         0.0843
     63 OG        142.9810   49.6680   -3.4970 O.3       1 SER        -0.3903
     64 N         147.2580   49.2170   -4.9080 N.am      1 ALA        -0.2639
     65 CA        148.5310   48.5190   -5.0020 C.3       1 ALA         0.1282
     66 C         148.8940   48.0600   -3.5890 C.2       1 ALA         0.2036
     67 O         148.7410   48.8150   -2.6270 O.2       1 ALA        -0.3944
     68 CB        149.6060   49.4570   -5.5400 C.3       1 ALA        -0.0244
     69 N         149.3570   46.8220   -3.4690 N.am      1 LEU        -0.2637
     70 CA        149.7530   46.2610   -2.1810 C.3       1 LEU         0.1312
     71 C         151.1290   46.7560   -1.7360 C.2       1 LEU         0.2040
     72 O         152.0530   46.8380   -2.5490 O.2       1 LEU        -0.3944
     73 CB        149.7860   44.7310   -2.2650 C.3       1 LEU        -0.0101
     74 CG        148.5230   43.9370   -1.9120 C.3       1 LEU        -0.0425
     75 CD1       148.6760   42.4720   -2.3530 C.3       1 LEU        -0.0625
     76 CD2       148.2770   44.0280   -0.4090 C.3       1 LEU        -0.0625
     77 N         151.2620   47.0990   -0.4550 N.am      1 SER        -0.2616
     78 CA        152.5580   47.5240    0.0820 C.3       1 SER         0.1539
     79 C         153.3880   46.2440    0.1880 C.2       1 SER         0.2062
     80 O         152.8300   45.1400    0.1820 O.2       1 SER        -0.3943
     81 CB        152.4150   48.1140    1.4890 C.3       1 SER         0.0843
     82 OG        151.6080   49.2770    1.4910 O.3       1 SER        -0.3903
     83 N         154.7090   46.3730    0.2860 N.am      1 GLU        -0.2636
     84 CA        155.5420   45.1820    0.4200 C.3       1 GLU         0.1325
     85 C         155.3760   44.6680    1.8470 C.2       1 GLU         0.2038
     86 O         155.4150   45.4420    2.8130 O.2       1 GLU        -0.3944
     87 CB        157.0090   45.5040    0.1300 C.3       1 GLU        -0.0008
     88 CG        157.9070   44.2800    0.0910 C.3       1 GLU         0.0044
     89 CD        159.2160   44.5410   -0.6300 C.2       1 GLU         0.0350
     90 OE1       159.8970   45.5310   -0.2890 O.co2     1 GLU        -0.5690
     91 OE2       159.5670   43.7560   -1.5370 O.co2     1 GLU        -0.5690
     92 N         155.1780   43.3630    1.9730 N.am      1 GLY        -0.2664
     93 CA        154.9760   42.7740    3.2810 C.3       1 GLY         0.1201
     94 C         153.5150   42.3860    3.3900 C.2       1 GLY         0.2007
     95 O         153.1620   41.4150    4.0610 O.2       1 GLY        -0.3947
     96 N         152.6640   43.1610    2.7220 N.am      1 ALA        -0.2642
     97 CA        151.2300   42.9050    2.7050 C.3       1 ALA         0.1281
     98 C         150.9910   41.8470    1.6360 C.2       1 ALA         0.2031
     99 O         149.9810   41.1380    1.6510 O.2       1 ALA        -0.3944
    100 CB        150.4740   44.1800    2.3590 C.3       1 ALA        -0.0244
    101 N         151.9480   41.7550    0.7150 N.am      1 THR        -0.2670
    102 CA        151.9070   40.8040   -0.3900 C.3       1 THR         0.1198
    103 C         152.1880   39.3810    0.0930 C.2       1 THR         0.0626
    104 O         151.3310   38.5010   -0.1360 O.co2     1 THR        -0.5665
    105 CB        152.9520   41.1690   -1.4690 C.3       1 THR         0.0869
    106 OG1       152.7360   42.5140   -1.9130 O.3       1 THR        -0.3880
    107 CG2       152.8410   40.2270   -2.6580 C.3       1 THR        -0.0352
    108 OXT       153.2620   39.1640    0.6940 O.co2     1 THR        -0.5665
    109 H1        127.1122   52.0830  -19.6961 H         1 PRO         0.2035
    110 H2        127.4292   52.1685  -21.3091 H         1 PRO         0.2035
    111 H3        129.5289   52.6729  -20.8558 H         1 PRO         0.1099
    112 H4        129.7205   54.9812  -20.8489 H         1 PRO         0.0347
    113 H5        128.8547   55.1258  -19.2817 H         1 PRO         0.0347
    114 H6        127.6970   54.8742  -22.1062 H         1 PRO         0.0320
    115 H7        127.1645   55.9383  -20.7604 H         1 PRO         0.0320
    116 H8        126.1165   54.1132  -19.5784 H         1 PRO         0.0814
    117 H9        125.7645   53.6908  -21.2885 H         1 PRO         0.0814
    118 H10       130.9991   52.0766  -19.3307 H         1 GLU         0.1885
    119 H11       129.9626   51.7505  -16.5629 H         1 GLU         0.0801
    120 H12       132.1082   50.2693  -18.1265 H         1 GLU         0.0330
    121 H13       130.5348   49.6436  -17.5268 H         1 GLU         0.0330
    122 H14       131.3617   50.0182  -15.1935 H         1 GLU         0.0433
    123 H15       132.9658   50.4332  -15.8874 H         1 GLU         0.0433
    124 H16       130.8850   52.6726  -14.8570 H         1 VAL         0.1883
    125 H17       133.1011   54.5753  -15.2493 H         1 VAL         0.0802
    126 H18       131.5962   53.6391  -12.7352 H         1 VAL         0.0343
    127 H19       132.7556   55.5094  -11.5862 H         1 VAL         0.0234
    128 H20       133.7009   55.8355  -13.0784 H         1 VAL         0.0234
    129 H21       133.9198   54.2855  -12.1974 H         1 VAL         0.0234
    130 H22       130.2551   55.0083  -14.3130 H         1 VAL         0.0234
    131 H23       131.5280   56.2755  -14.2922 H         1 VAL         0.0234
    132 H24       130.6055   55.9044  -12.7962 H         1 VAL         0.0234
    133 H25       135.2020   53.9264  -15.0607 H         1 ILE         0.1883
    134 H26       135.7262   51.2156  -13.9798 H         1 ILE         0.0803
    135 H27       137.1108   52.9794  -16.0161 H         1 ILE         0.0345
    136 H28       136.4907   49.9990  -15.7832 H         1 ILE         0.0267
    137 H29       137.2847   50.7860  -17.1892 H         1 ILE         0.0267
    138 H30       138.8694   52.4881  -14.3474 H         1 ILE         0.0235
    139 H31       139.1469   51.6024  -15.8853 H         1 ILE         0.0235
    140 H32       138.4806   50.7380  -14.4586 H         1 ILE         0.0235
    141 H33       134.9187   50.3623  -17.6152 H         1 ILE         0.0230
    142 H34       135.2686   52.1238  -17.5790 H         1 ILE         0.0230
    143 H35       134.4746   51.3368  -16.1731 H         1 ILE         0.0230
    144 H36       137.8537   53.1516  -10.6181 H         1 PRO         0.0802
    145 H37       136.4828   51.4882   -9.5010 H         1 PRO         0.0313
    146 H38       138.1508   51.0143   -9.0319 H         1 PRO         0.0313
    147 H39       136.7009   49.1500  -10.2038 H         1 PRO         0.0287
    148 H40       138.3227   49.4568  -10.9126 H         1 PRO         0.0287
    149 H41       136.9529   49.7921  -12.8454 H         1 PRO         0.0524
    150 H42       135.5860   50.4437  -11.8790 H         1 PRO         0.0524
    151 H43       139.8668   53.1925   -9.6101 H         1 MET         0.1883
    152 H44       142.1462   52.0621  -11.1629 H         1 MET         0.0800
    153 H45       143.4154   53.3615   -9.3018 H         1 MET         0.0320
    154 H46       141.8157   54.0559   -8.8715 H         1 MET         0.0320
    155 H47       143.0114   55.6088  -10.2749 H         1 MET         0.0378
    156 H48       141.6226   54.9330  -11.1920 H         1 MET         0.0378
    157 H49       146.0863   54.4127  -12.0660 H         1 MET         0.0340
    158 H50       145.4478   54.1928  -10.4015 H         1 MET         0.0340
    159 H51       145.2648   55.7751  -11.2320 H         1 MET         0.0340
    160 H52       143.4011   50.3761  -10.1269 H         1 PHE         0.1885
    161 H53       142.0547   49.2025   -7.7530 H         1 PHE         0.0823
    162 H54       143.4071   47.1552   -8.3082 H         1 PHE         0.0474
    163 H55       144.0199   48.0198   -9.7587 H         1 PHE         0.0474
    164 H56       140.7938   47.0198   -8.0915 H         1 PHE         0.0557
    165 H57       142.8418   47.8357  -11.7718 H         1 PHE         0.0557
    166 H58       138.7729   46.3369   -9.3515 H         1 PHE         0.0599
    167 H59       140.8238   47.1581  -13.0535 H         1 PHE         0.0599
    168 H60       138.7776   46.4035  -11.8450 H         1 PHE         0.0559
    169 H61       142.9887   48.8350   -5.8727 H         1 SER         0.1884
    170 H62       145.1199   50.4962   -5.0216 H         1 SER         0.0823
    171 H63       144.9138   49.3547   -2.8869 H         1 SER         0.0606
    172 H64       144.0965   47.9549   -3.6609 H         1 SER         0.0606
    173 H65       142.6280   49.4081   -2.6542 H         1 SER         0.2097
    174 H66       147.2401   50.1670   -4.5963 H         1 ALA         0.1883
    175 H67       148.4364   47.6495   -5.6690 H         1 ALA         0.0797
    176 H68       150.5628   48.9183   -5.6064 H         1 ALA         0.0277
    177 H69       149.7154   50.3164   -4.8622 H         1 ALA         0.0277
    178 H70       149.3154   49.8128   -6.5395 H         1 ALA         0.0277
    179 H71       149.4372   46.2545   -4.2885 H         1 LEU         0.1883
    180 H72       149.0104   46.5635   -1.4280 H         1 LEU         0.0800
    181 H73       150.5813   44.3886   -1.5867 H         1 LEU         0.0315
    182 H74       150.0503   44.4712   -3.3007 H         1 LEU         0.0315
    183 H75       147.6642   44.3763   -2.4406 H         1 LEU         0.0298
    184 H76       147.7640   41.9141   -2.0942 H         1 LEU         0.0232
    185 H77       149.5388   42.0227   -1.8395 H         1 LEU         0.0232
    186 H78       148.8345   42.4311   -3.4407 H         1 LEU         0.0232
    187 H79       148.1711   45.0835   -0.1181 H         1 LEU         0.0232
    188 H80       149.1268   43.5829    0.1293 H         1 LEU         0.0232
    189 H81       147.3558   43.4833   -0.1546 H         1 LEU         0.0232
    190 H82       150.4656   47.0659    0.1489 H         1 SER         0.1884
    191 H83       153.0340   48.2554   -0.5876 H         1 SER         0.0823
    192 H84       153.4139   48.3730    1.8699 H         1 SER         0.0606
    193 H85       151.9559   47.3608    2.1462 H         1 SER         0.0606
    194 H86       150.7412   49.0602    1.1681 H         1 SER         0.2097
    195 H87       155.1284   47.2806    0.2679 H         1 GLU         0.1883
    196 H88       155.2004   44.4140   -0.2896 H         1 GLU         0.0801
    197 H89       157.3778   46.1802    0.9153 H         1 GLU         0.0330
    198 H90       157.0674   46.0086   -0.8457 H         1 GLU         0.0330
    199 H91       157.3748   43.4687   -0.4272 H         1 GLU         0.0433
    200 H92       158.1286   43.9723    1.1236 H         1 GLU         0.0433
    201 H93       155.1680   42.7814    1.1596 H         1 GLY         0.1881
    202 H94       155.2293   43.5039    4.0639 H         1 GLY         0.0763
    203 H95       155.6099   41.8820    3.3923 H         1 GLY         0.0763
    204 H96       153.0209   43.9454    2.2147 H         1 ALA         0.1883
    205 H97       150.8978   42.5358    3.6865 H         1 ALA         0.0797
    206 H98       149.3934   43.9743    2.3492 H         1 ALA         0.0277
    207 H99       150.7886   44.5350    1.3665 H         1 ALA         0.0277
    208 H100      150.6935   44.9520    3.1112 H         1 ALA         0.0277
    209 H101      152.7344   42.3688    0.7844 H         1 THR         0.1876
    210 H102      150.9033   40.8361   -0.8390 H         1 THR         0.0752
    211 H103      153.9597   41.0861   -1.0358 H         1 THR         0.0632
    212 H104      152.8223   43.1073   -1.1761 H         1 THR         0.2100
    213 H105      153.5910   40.5014   -3.4144 H         1 THR         0.0256
    214 H106      151.8344   40.3047   -3.0947 H         1 THR         0.0256
    215 H107      153.0174   39.1936   -2.3248 H         1 THR         0.0256
@<TRIPOS>BOND
     1    1    2 1  
     2    1    7 1  
     3    2    3 1  
     4    2    5 1  
     5    3    4 2  
     6    3    8 am 
     7    5    6 1  
     8    6    7 1  
     9    8    9 1  
    10    9   10 1  
    11    9   12 1  
    12   10   11 2  
    13   10   17 am 
    14   12   13 1  
    15   13   14 1  
    16   14   15 ar 
    17   14   16 ar 
    18   17   18 1  
    19   18   19 1  
    20   18   21 1  
    21   19   20 2  
    22   19   24 am 
    23   21   22 1  
    24   21   23 1  
    25   24   25 1  
    26   25   26 1  
    27   25   28 1  
    28   26   27 2  
    29   26   32 am 
    30   28   29 1  
    31   28   30 1  
    32   29   31 1  
    33   32   33 1  
    34   32   38 1  
    35   33   34 1  
    36   33   36 1  
    37   34   35 2  
    38   34   39 am 
    39   36   37 1  
    40   37   38 1  
    41   39   40 1  
    42   40   41 1  
    43   40   43 1  
    44   41   42 2  
    45   41   47 am 
    46   43   44 1  
    47   44   45 1  
    48   45   46 1  
    49   47   48 1  
    50   48   49 1  
    51   48   51 1  
    52   49   50 2  
    53   49   58 am 
    54   51   52 1  
    55   52   53 ar 
    56   52   54 ar 
    57   53   55 ar 
    58   54   56 ar 
    59   55   57 ar 
    60   56   57 ar 
    61   58   59 1  
    62   59   60 1  
    63   59   62 1  
    64   60   61 2  
    65   60   64 am 
    66   62   63 1  
    67   64   65 1  
    68   65   66 1  
    69   65   68 1  
    70   66   67 2  
    71   66   69 am 
    72   69   70 1  
    73   70   71 1  
    74   70   73 1  
    75   71   72 2  
    76   71   77 am 
    77   73   74 1  
    78   74   75 1  
    79   74   76 1  
    80   77   78 1  
    81   78   79 1  
    82   78   81 1  
    83   79   80 2  
    84   79   83 am 
    85   81   82 1  
    86   83   84 1  
    87   84   85 1  
    88   84   87 1  
    89   85   86 2  
    90   85   92 am 
    91   87   88 1  
    92   88   89 1  
    93   89   90 ar 
    94   89   91 ar 
    95   92   93 1  
    96   93   94 1  
    97   94   95 2  
    98   94   96 am 
    99   96   97 1  
   100   97   98 1  
   101   97  100 1  
   102   98   99 2  
   103   98  101 am 
   104  101  102 1  
   105  102  103 1  
   106  102  105 1  
   107  103  104 ar 
   108  103  108 ar 
   109  105  106 1  
   110  105  107 1  
   111    1  109 1  
   112    1  110 1  
   113    2  111 1  
   114    5  112 1  
   115    5  113 1  
   116    6  114 1  
   117    6  115 1  
   118    7  116 1  
   119    7  117 1  
   120    8  118 1  
   121    9  119 1  
   122   12  120 1  
   123   12  121 1  
   124   13  122 1  
   125   13  123 1  
   126   17  124 1  
   127   18  125 1  
   128   21  126 1  
   129   22  127 1  
   130   22  128 1  
   131   22  129 1  
   132   23  130 1  
   133   23  131 1  
   134   23  132 1  
   135   24  133 1  
   136   25  134 1  
   137   28  135 1  
   138   29  136 1  
   139   29  137 1  
   140   30  138 1  
   141   30  139 1  
   142   30  140 1  
   143   31  141 1  
   144   31  142 1  
   145   31  143 1  
   146   33  144 1  
   147   36  145 1  
   148   36  146 1  
   149   37  147 1  
   150   37  148 1  
   151   38  149 1  
   152   38  150 1  
   153   39  151 1  
   154   40  152 1  
   155   43  153 1  
   156   43  154 1  
   157   44  155 1  
   158   44  156 1  
   159   46  157 1  
   160   46  158 1  
   161   46  159 1  
   162   47  160 1  
   163   48  161 1  
   164   51  162 1  
   165   51  163 1  
   166   53  164 1  
   167   54  165 1  
   168   55  166 1  
   169   56  167 1  
   170   57  168 1  
   171   58  169 1  
   172   59  170 1  
   173   62  171 1  
   174   62  172 1  
   175   63  173 1  
   176   64  174 1  
   177   65  175 1  
   178   68  176 1  
   179   68  177 1  
   180   68  178 1  
   181   69  179 1  
   182   70  180 1  
   183   73  181 1  
   184   73  182 1  
   185   74  183 1  
   186   75  184 1  
   187   75  185 1  
   188   75  186 1  
   189   76  187 1  
   190   76  188 1  
   191   76  189 1  
   192   77  190 1  
   193   78  191 1  
   194   81  192 1  
   195   81  193 1  
   196   82  194 1  
   197   83  195 1  
   198   84  196 1  
   199   87  197 1  
   200   87  198 1  
   201   88  199 1  
   202   88  200 1  
   203   92  201 1  
   204   93  202 1  
   205   93  203 1  
   206   96  204 1  
   207   97  205 1  
   208  100  206 1  
   209  100  207 1  
   210  100  208 1  
   211  101  209 1  
   212  102  210 1  
   213  105  211 1  
   214  106  212 1  
   215  107  213 1  
   216  107  214 1  
   217  107  215 1  
@<TRIPOS>SUBSTRUCTURE
     1 PRO         1

