1sje_ligand
  -I-interpret- 

218220  0  0  0  0  0  0  0  0999 V2000
  127.4400   52.6790  -20.4400 N   0  3  0  0  0
  128.8210   53.1240  -20.1450 C   0  0  0  0  0
  129.1820   52.7090  -18.7200 C   0  0  0  0  0
  128.3810   52.8730  -17.7960 O   0  0  0  0  0
  128.8470   54.6450  -20.2710 C   0  0  0  0  0
  127.5420   54.9380  -21.0190 C   0  0  0  0  0
  126.5630   53.8550  -20.5500 C   0  0  0  0  0
  130.3890   52.1790  -18.5450 N   0  0  0  0  0
  130.8380   51.7450  -17.2290 C   0  0  0  0  0
  131.9000   52.6490  -16.6040 C   0  0  0  0  0
  132.8560   53.0530  -17.2670 O   0  0  0  0  0
  131.3750   50.3190  -17.3080 C   0  0  0  0  0
  132.0460   49.8490  -16.0380 C   0  0  0  0  0
  132.4060   48.3790  -16.0850 C   0  0  0  0  0
  133.0870   47.8950  -15.1560 O   0  0  0  0  0
  132.0040   47.7010  -17.0510 O   0  0  0  0  0
  131.7120   52.9810  -15.3270 N   0  0  0  0  0
  132.6920   53.7880  -14.5990 C   0  0  0  0  0
  133.7800   52.7970  -14.1810 C   0  0  0  0  0
  133.4870   51.7870  -13.5440 O   0  0  0  0  0
  132.0870   54.4250  -13.3280 C   0  0  0  0  0
  133.1930   55.0580  -12.4890 C   0  0  0  0  0
  131.0460   55.4770  -13.7090 C   0  0  0  0  0
  135.0270   53.0840  -14.5510 N   0  0  0  0  0
  136.1450   52.2010  -14.2320 C   0  0  0  0  0
  136.9650   52.6780  -13.0430 C   0  0  0  0  0
  137.3650   53.8420  -12.9680 O   0  0  0  0  0
  137.0860   52.0330  -15.4560 C   0  0  0  0  0
  136.5630   50.9260  -16.3710 C   0  0  0  0  0
  138.4920   51.6920  -15.0060 C   0  0  0  0  0
  135.2160   51.2060  -16.9750 C   0  0  0  0  0
  137.2430   51.7700  -12.0990 N   0  0  0  0  0
  138.0210   52.1040  -10.9090 C   0  0  0  0  0
  139.5110   51.8670  -11.0810 C   0  0  0  0  0
  139.9330   51.1050  -11.9530 O   0  0  0  0  0
  137.4600   51.1510   -9.8770 C   0  0  0  0  0
  137.3360   49.8960  -10.7040 C   0  0  0  0  0
  136.6810   50.4130  -11.9790 C   0  0  0  0  0
  140.2910   52.5390  -10.2370 N   0  0  0  0  0
  141.7350   52.3630  -10.1880 C   0  0  0  0  0
  141.8780   51.2640   -9.1330 C   0  0  0  0  0
  141.1290   51.2580   -8.1500 O   0  0  0  0  0
  142.4220   53.6350   -9.6870 C   0  0  0  0  0
  142.6010   54.7030  -10.7450 C   0  0  0  0  0
  143.7220   54.1540  -12.0380 S   0  0  0  0  0
  145.2780   54.6840  -11.3710 C   0  0  0  0  0
  142.8130   50.3380   -9.3190 N   0  0  0  0  0
  142.9810   49.2650   -8.3430 C   0  0  0  0  0
  144.1230   49.5360   -7.3740 C   0  0  0  0  0
  145.1820   50.0230   -7.7600 O   0  0  0  0  0
  143.1750   47.9230   -9.0610 C   0  0  0  0  0
  141.9580   47.4770   -9.8410 C   0  0  0  0  0
  140.8030   47.0510   -9.1750 C   0  0  0  0  0
  141.9540   47.5100  -11.2420 C   0  0  0  0  0
  139.6580   46.6640   -9.8850 C   0  0  0  0  0
  140.8130   47.1260  -11.9700 C   0  0  0  0  0
  139.6600   46.7010  -11.2900 C   0  0  0  0  0
  143.8790   49.2260   -6.1060 N   0  0  0  0  0
  144.8500   49.4300   -5.0400 C   0  0  0  0  0
  146.1200   48.6140   -5.2290 C   0  0  0  0  0
  146.0730   47.4590   -5.6420 O   0  0  0  0  0
  144.2320   49.0460   -3.6930 C   0  0  0  0  0
  142.9810   49.6680   -3.4970 O   0  0  0  0  0
  147.2580   49.2170   -4.9080 N   0  0  0  0  0
  148.5310   48.5190   -5.0020 C   0  0  0  0  0
  148.8940   48.0600   -3.5890 C   0  0  0  0  0
  148.7410   48.8150   -2.6270 O   0  0  0  0  0
  149.6060   49.4570   -5.5400 C   0  0  0  0  0
  149.3570   46.8220   -3.4690 N   0  0  0  0  0
  149.7530   46.2610   -2.1810 C   0  0  0  0  0
  151.1290   46.7560   -1.7360 C   0  0  0  0  0
  152.0530   46.8380   -2.5490 O   0  0  0  0  0
  149.7860   44.7310   -2.2650 C   0  0  0  0  0
  148.5230   43.9370   -1.9120 C   0  0  0  0  0
  148.6760   42.4720   -2.3530 C   0  0  0  0  0
  148.2770   44.0280   -0.4090 C   0  0  0  0  0
  151.2620   47.0990   -0.4550 N   0  0  0  0  0
  152.5580   47.5240    0.0820 C   0  0  0  0  0
  153.3880   46.2440    0.1880 C   0  0  0  0  0
  152.8300   45.1400    0.1820 O   0  0  0  0  0
  152.4150   48.1140    1.4890 C   0  0  0  0  0
  151.6080   49.2770    1.4910 O   0  0  0  0  0
  154.7090   46.3730    0.2860 N   0  0  0  0  0
  155.5420   45.1820    0.4200 C   0  0  0  0  0
  155.3760   44.6680    1.8470 C   0  0  0  0  0
  155.4150   45.4420    2.8130 O   0  0  0  0  0
  157.0090   45.5040    0.1300 C   0  0  0  0  0
  157.9070   44.2800    0.0910 C   0  0  0  0  0
  159.2160   44.5410   -0.6300 C   0  0  0  0  0
  159.8970   45.5310   -0.2890 O   0  0  0  0  0
  159.5670   43.7560   -1.5370 O   0  0  0  0  0
  155.1780   43.3630    1.9730 N   0  0  0  0  0
  154.9760   42.7740    3.2810 C   0  0  0  0  0
  153.5150   42.3860    3.3900 C   0  0  0  0  0
  153.1620   41.4150    4.0610 O   0  0  0  0  0
  152.6640   43.1610    2.7220 N   0  0  0  0  0
  151.2300   42.9050    2.7050 C   0  0  0  0  0
  150.9910   41.8470    1.6360 C   0  0  0  0  0
  149.9810   41.1380    1.6510 O   0  0  0  0  0
  150.4740   44.1800    2.3590 C   0  0  0  0  0
  151.9480   41.7550    0.7150 N   0  0  0  0  0
  151.9070   40.8040   -0.3900 C   0  0  0  0  0
  152.1880   39.3810    0.0930 C   0  0  0  0  0
  151.3310   38.5010   -0.1360 O   0  0  0  0  0
  152.9520   41.1690   -1.4690 C   0  0  0  0  0
  152.7360   42.5140   -1.9130 O   0  0  0  0  0
  152.8410   40.2270   -2.6580 C   0  0  0  0  0
  153.2620   39.1640    0.6940 O   0  0  0  0  0
  127.1081   52.0748  -19.6882 H   0  0  0  0  0
  127.4286   52.1613  -21.3188 H   0  0  0  0  0
  129.5384   52.6760  -20.8326 H   0  0  0  0  0
  129.7301   55.0154  -20.7916 H   0  0  0  0  0
  128.9107   55.1523  -19.3084 H   0  0  0  0  0
  127.6822   54.9148  -22.0997 H   0  0  0  0  0
  127.1695   55.9395  -20.8037 H   0  0  0  0  0
  126.0560   54.1049  -19.6180 H   0  0  0  0  0
  125.7243   53.7066  -21.2301 H   0  0  0  0  0
  131.0113   52.0745  -19.3464 H   0  0  0  0  0
  129.9627   51.7985  -16.5816 H   0  0  0  0  0
  132.1246   50.2972  -18.0990 H   0  0  0  0  0
  130.5251   49.6611  -17.4894 H   0  0  0  0  0
  131.3495   49.9993  -15.2132 H   0  0  0  0  0
  132.9673   50.4179  -15.9130 H   0  0  0  0  0
  133.2904   48.5828  -14.5179 H   0  0  0  0  0
  130.8684   52.6664  -14.8476 H   0  0  0  0  0
  133.0558   54.6059  -15.2209 H   0  0  0  0  0
  131.5975   53.6479  -12.7409 H   0  0  0  0  0
  133.9124   54.2916  -12.2007 H   0  0  0  0  0
  133.6955   55.8282  -13.0741 H   0  0  0  0  0
  132.7584   55.5049  -11.5948 H   0  0  0  0  0
  131.5198   56.2549  -14.3078 H   0  0  0  0  0
  130.2502   55.0064  -14.2863 H   0  0  0  0  0
  130.6282   55.9174  -12.8037 H   0  0  0  0  0
  135.2055   53.9432  -15.0708 H   0  0  0  0  0
  135.6969   51.2436  -13.9662 H   0  0  0  0  0
  137.1086   52.9763  -16.0016 H   0  0  0  0  0
  136.4602   50.0284  -15.7612 H   0  0  0  0  0
  137.2700   50.8310  -17.1951 H   0  0  0  0  0
  138.8742   52.4934  -14.3738 H   0  0  0  0  0
  138.4755   50.7593  -14.4422 H   0  0  0  0  0
  139.1342   51.5788  -15.8794 H   0  0  0  0  0
  134.4823   51.3354  -16.1794 H   0  0  0  0  0
  135.2695   52.1156  -17.5732 H   0  0  0  0  0
  134.9225   50.3694  -17.6090 H   0  0  0  0  0
  137.9402   53.1604  -10.6531 H   0  0  0  0  0
  136.5250   51.4821   -9.4250 H   0  0  0  0  0
  138.0803   51.0402   -8.9876 H   0  0  0  0  0
  136.7594   49.1126  -10.2121 H   0  0  0  0  0
  138.2915   49.4025  -10.8816 H   0  0  0  0  0
  136.8858   49.7877  -12.8480 H   0  0  0  0  0
  135.5920   50.4044  -11.9333 H   0  0  0  0  0
  139.8583   53.2055   -9.5975 H   0  0  0  0  0
  142.1780   52.1324  -11.1568 H   0  0  0  0  0
  143.4175   53.3497   -9.3470 H   0  0  0  0  0
  141.7870   54.0576   -8.9083 H   0  0  0  0  0
  143.0207   55.5922  -10.2747 H   0  0  0  0  0
  141.6303   54.9157  -11.1929 H   0  0  0  0  0
  145.2636   55.7652  -11.2337 H   0  0  0  0  0
  145.4450   54.1967  -10.4104 H   0  0  0  0  0
  146.0781   54.4146  -12.0605 H   0  0  0  0  0
  143.4129   50.3768  -10.1430 H   0  0  0  0  0
  142.0704   49.2193   -7.7456 H   0  0  0  0  0
  143.3716   47.1685   -8.2993 H   0  0  0  0  0
  143.9932   48.0455   -9.7707 H   0  0  0  0  0
  140.7937   47.0196   -8.0855 H   0  0  0  0  0
  142.8468   47.8375  -11.7747 H   0  0  0  0  0
  138.7680   46.3351   -9.3486 H   0  0  0  0  0
  140.8238   47.1583  -13.0595 H   0  0  0  0  0
  138.7728   46.4019  -11.8481 H   0  0  0  0  0
  142.9709   48.8272   -5.8680 H   0  0  0  0  0
  145.1184   50.4861   -5.0669 H   0  0  0  0  0
  144.9057   49.3719   -2.9005 H   0  0  0  0  0
  144.0849   47.9661   -3.6779 H   0  0  0  0  0
  142.6242   49.4054   -2.6453 H   0  0  0  0  0
  147.2397   50.1860   -4.5901 H   0  0  0  0  0
  148.4590   47.6696   -5.6813 H   0  0  0  0  0
  149.3169   49.8089   -6.5303 H   0  0  0  0  0
  149.7134   50.3081   -4.8676 H   0  0  0  0  0
  150.5535   48.9222   -5.6054 H   0  0  0  0  0
  149.4388   46.2432   -4.3049 H   0  0  0  0  0
  149.0157   46.5898   -1.4486 H   0  0  0  0  0
  150.5245   44.4260   -1.5236 H   0  0  0  0  0
  149.9689   44.5125   -3.3171 H   0  0  0  0  0
  147.6665   44.3587   -2.4380 H   0  0  0  0  0
  148.8330   42.4329   -3.4309 H   0  0  0  0  0
  149.5312   42.0280   -1.8436 H   0  0  0  0  0
  147.7718   41.9202   -2.0960 H   0  0  0  0  0
  149.1322   43.6120    0.1237 H   0  0  0  0  0
  148.1442   45.0723   -0.1264 H   0  0  0  0  0
  147.3795   43.4644   -0.1543 H   0  0  0  0  0
  150.4497   47.0653    0.1610 H   0  0  0  0  0
  153.0047   48.2864   -0.5562 H   0  0  0  0  0
  153.4073   48.3846    1.8499 H   0  0  0  0  0
  151.9424   47.3676    2.1274 H   0  0  0  0  0
  151.5413   49.6173    2.3862 H   0  0  0  0  0
  155.1368   47.2988    0.2676 H   0  0  0  0  0
  155.2344   44.4232   -0.2995 H   0  0  0  0  0
  157.3671   46.1452    0.9354 H   0  0  0  0  0
  157.0517   45.9708   -0.8541 H   0  0  0  0  0
  157.3786   43.4928   -0.4467 H   0  0  0  0  0
  158.1395   44.0011    1.1188 H   0  0  0  0  0
  158.9044   43.0688   -1.6380 H   0  0  0  0  0
  155.1678   42.7698    1.1433 H   0  0  0  0  0
  155.2389   43.4865    4.0629 H   0  0  0  0  0
  155.6118   41.8974    3.4049 H   0  0  0  0  0
  153.0280   43.9611    2.2046 H   0  0  0  0  0
  150.8786   42.5665    3.6797 H   0  0  0  0  0
  150.6924   44.9441    3.1050 H   0  0  0  0  0
  150.7867   44.5307    1.3755 H   0  0  0  0  0
  149.4035   43.9749    2.3496 H   0  0  0  0  0
  152.7501   42.3811    0.7858 H   0  0  0  0  0
  150.9041   40.8521   -0.8142 H   0  0  0  0  0
  153.9471   41.0769   -1.0337 H   0  0  0  0  0
  153.3866   42.7371   -2.5828 H   0  0  0  0  0
  153.0159   39.2035   -2.3266 H   0  0  0  0  0
  151.8432   40.3049   -3.0897 H   0  0  0  0  0
  153.5846   40.4999   -3.4068 H   0  0  0  0  0
  153.7632   39.9804    0.7561 H   0  0  0  0  0
  1  2  1  0  0  0
  1  7  1  0  0  0
  2  3  1  0  0  0
  2  5  1  0  0  0
  3  4  2  0  0  0
  3  8  1  0  0  0
  5  6  1  0  0  0
  6  7  1  0  0  0
  8  9  1  0  0  0
  9 10  1  0  0  0
  9 12  1  0  0  0
 10 11  2  0  0  0
 10 17  1  0  0  0
 12 13  1  0  0  0
 13 14  1  0  0  0
 14 15  1  0  0  0
 14 16  2  0  0  0
 17 18  1  0  0  0
 18 19  1  0  0  0
 18 21  1  0  0  0
 19 20  2  0  0  0
 19 24  1  0  0  0
 21 22  1  0  0  0
 21 23  1  0  0  0
 24 25  1  0  0  0
 25 26  1  0  0  0
 25 28  1  0  0  0
 26 27  2  0  0  0
 26 32  1  0  0  0
 28 29  1  0  0  0
 28 30  1  0  0  0
 29 31  1  0  0  0
 32 33  1  0  0  0
 32 38  1  0  0  0
 33 34  1  0  0  0
 33 36  1  0  0  0
 34 35  2  0  0  0
 34 39  1  0  0  0
 36 37  1  0  0  0
 37 38  1  0  0  0
 39 40  1  0  0  0
 40 41  1  0  0  0
 40 43  1  0  0  0
 41 42  2  0  0  0
 41 47  1  0  0  0
 43 44  1  0  0  0
 44 45  1  0  0  0
 45 46  1  0  0  0
 47 48  1  0  0  0
 48 49  1  0  0  0
 48 51  1  0  0  0
 49 50  2  0  0  0
 49 58  1  0  0  0
 51 52  1  0  0  0
 52 53  4  0  0  0
 52 54  4  0  0  0
 53 55  4  0  0  0
 54 56  4  0  0  0
 55 57  4  0  0  0
 56 57  4  0  0  0
 58 59  1  0  0  0
 59 60  1  0  0  0
 59 62  1  0  0  0
 60 61  2  0  0  0
 60 64  1  0  0  0
 62 63  1  0  0  0
 64 65  1  0  0  0
 65 66  1  0  0  0
 65 68  1  0  0  0
 66 67  2  0  0  0
 66 69  1  0  0  0
 69 70  1  0  0  0
 70 71  1  0  0  0
 70 73  1  0  0  0
 71 72  2  0  0  0
 71 77  1  0  0  0
 73 74  1  0  0  0
 74 75  1  0  0  0
 74 76  1  0  0  0
 77 78  1  0  0  0
 78 79  1  0  0  0
 78 81  1  0  0  0
 79 80  2  0  0  0
 79 83  1  0  0  0
 81 82  1  0  0  0
 83 84  1  0  0  0
 84 85  1  0  0  0
 84 87  1  0  0  0
 85 86  2  0  0  0
 85 92  1  0  0  0
 87 88  1  0  0  0
 88 89  1  0  0  0
 89 90  2  0  0  0
 89 91  1  0  0  0
 92 93  1  0  0  0
 93 94  1  0  0  0
 94 95  2  0  0  0
 94 96  1  0  0  0
 96 97  1  0  0  0
 97 98  1  0  0  0
 97100  1  0  0  0
 98 99  2  0  0  0
 98101  1  0  0  0
101102  1  0  0  0
102103  1  0  0  0
102105  1  0  0  0
103104  2  0  0  0
103108  1  0  0  0
105106  1  0  0  0
105107  1  0  0  0
  1109  1  0  0  0
  1110  1  0  0  0
  2111  1  0  0  0
  5112  1  0  0  0
  5113  1  0  0  0
  6114  1  0  0  0
  6115  1  0  0  0
  7116  1  0  0  0
  7117  1  0  0  0
  8118  1  0  0  0
  9119  1  0  0  0
 12120  1  0  0  0
 12121  1  0  0  0
 13122  1  0  0  0
 13123  1  0  0  0
 15124  1  0  0  0
 17125  1  0  0  0
 18126  1  0  0  0
 21127  1  0  0  0
 22128  1  0  0  0
 22129  1  0  0  0
 22130  1  0  0  0
 23131  1  0  0  0
 23132  1  0  0  0
 23133  1  0  0  0
 24134  1  0  0  0
 25135  1  0  0  0
 28136  1  0  0  0
 29137  1  0  0  0
 29138  1  0  0  0
 30139  1  0  0  0
 30140  1  0  0  0
 30141  1  0  0  0
 31142  1  0  0  0
 31143  1  0  0  0
 31144  1  0  0  0
 33145  1  0  0  0
 36146  1  0  0  0
 36147  1  0  0  0
 37148  1  0  0  0
 37149  1  0  0  0
 38150  1  0  0  0
 38151  1  0  0  0
 39152  1  0  0  0
 40153  1  0  0  0
 43154  1  0  0  0
 43155  1  0  0  0
 44156  1  0  0  0
 44157  1  0  0  0
 46158  1  0  0  0
 46159  1  0  0  0
 46160  1  0  0  0
 47161  1  0  0  0
 48162  1  0  0  0
 51163  1  0  0  0
 51164  1  0  0  0
 53165  1  0  0  0
 54166  1  0  0  0
 55167  1  0  0  0
 56168  1  0  0  0
 57169  1  0  0  0
 58170  1  0  0  0
 59171  1  0  0  0
 62172  1  0  0  0
 62173  1  0  0  0
 63174  1  0  0  0
 64175  1  0  0  0
 65176  1  0  0  0
 68177  1  0  0  0
 68178  1  0  0  0
 68179  1  0  0  0
 69180  1  0  0  0
 70181  1  0  0  0
 73182  1  0  0  0
 73183  1  0  0  0
 74184  1  0  0  0
 75185  1  0  0  0
 75186  1  0  0  0
 75187  1  0  0  0
 76188  1  0  0  0
 76189  1  0  0  0
 76190  1  0  0  0
 77191  1  0  0  0
 78192  1  0  0  0
 81193  1  0  0  0
 81194  1  0  0  0
 82195  1  0  0  0
 83196  1  0  0  0
 84197  1  0  0  0
 87198  1  0  0  0
 87199  1  0  0  0
 88200  1  0  0  0
 88201  1  0  0  0
 91202  1  0  0  0
 92203  1  0  0  0
 93204  1  0  0  0
 93205  1  0  0  0
 96206  1  0  0  0
 97207  1  0  0  0
100208  1  0  0  0
100209  1  0  0  0
100210  1  0  0  0
101211  1  0  0  0
102212  1  0  0  0
105213  1  0  0  0
106214  1  0  0  0
107215  1  0  0  0
107216  1  0  0  0
107217  1  0  0  0
108218  1  0  0  0
M  END
$$$$
