4pyx_ligand
  -I-interpret- 

 49 50  0  0  0  0  0  0  0  0999 V2000
   -2.9120    3.2080   13.2420 F   0  0  0  0  0
   -3.8400    3.2860   14.1730 C   0  0  0  0  0
   -4.3510    4.5110   14.5500 C   0  0  0  0  0
   -3.7230    6.0230   13.8200 S   0  0  0  0  0
   -4.2030    5.8180   12.0490 C   0  0  0  0  0
   -5.6620    6.2450   11.7140 C   0  0  0  0  0
   -6.0260    5.8620   10.3900 O   0  0  0  0  0
   -5.3360    4.5630   15.5210 C   0  0  0  0  0
   -5.8920    5.7150   15.9040 F   0  0  0  0  0
   -4.3110    2.0740   14.7320 C   0  0  0  0  0
   -5.2360    2.1660   15.7740 C   0  0  0  0  0
   -5.8500    0.7560   16.6650 S   0  0  0  0  0
   -7.3390    0.8200   16.5660 O   0  0  0  0  0
   -5.1200   -0.6680   16.1100 N   0  0  0  0  0
   -5.4270    0.9840   18.0570 O   0  0  0  0  0
   -5.7790    3.3940   16.1410 C   0  0  0  0  0
   -6.6790    3.4560   17.0930 F   0  0  0  0  0
   -3.7440    0.8460   14.3020 N   0  0  0  0  0
   -3.6000    0.5360   12.8980 C   0  0  0  0  0
   -3.8160   -1.0030   12.8330 C   0  0  0  0  0
   -3.0320   -1.7140   11.7250 C   0  0  0  0  0
   -2.9750   -1.2090   10.2990 C   0  0  0  0  0
   -2.4920    0.2250    9.9540 C   0  0  0  0  0
   -3.7620    0.9820    9.6620 C   0  0  0  0  0
   -4.2190    1.9300   10.7630 C   0  0  0  0  0
   -4.7100    1.2080   12.0310 C   0  0  0  0  0
   -4.1243    4.7550   11.8209 H   0  0  0  0  0
   -3.5435    6.4609   11.4661 H   0  0  0  0  0
   -5.7312    7.3300   11.7915 H   0  0  0  0  0
   -6.3361    5.7518   12.4143 H   0  0  0  0  0
   -6.9284    6.1387   10.2147 H   0  0  0  0  0
   -5.6943   -1.4225   15.7341 H   0  0  0  0  0
   -4.1061   -0.7711   16.1516 H   0  0  0  0  0
   -3.4319    0.1687   14.9979 H   0  0  0  0  0
   -2.6391    0.8843   12.5193 H   0  0  0  0  0
   -4.8740   -1.1663   12.6276 H   0  0  0  0  0
   -3.4671   -1.4124   13.7810 H   0  0  0  0  0
   -3.5493   -2.6687   11.6291 H   0  0  0  0  0
   -1.9981   -1.6287   12.0594 H   0  0  0  0  0
   -4.0186   -1.2108    9.9843 H   0  0  0  0  0
   -2.2296   -1.8507    9.8292 H   0  0  0  0  0
   -1.8034    0.2352    9.1091 H   0  0  0  0  0
   -1.9229    0.6745   10.7677 H   0  0  0  0  0
   -4.5496    0.2380    9.5425 H   0  0  0  0  0
   -3.5659    1.5951    8.7823 H   0  0  0  0  0
   -5.0556    2.5083   10.3708 H   0  0  0  0  0
   -3.3619    2.5413   11.0454 H   0  0  0  0  0
   -5.1752    1.9679   12.6590 H   0  0  0  0  0
   -5.3678    0.4063   11.6952 H   0  0  0  0  0
  1  2  1  0  0  0
  2  3  4  0  0  0
  2 10  4  0  0  0
  3  4  1  0  0  0
  3  8  4  0  0  0
  4  5  1  0  0  0
  5  6  1  0  0  0
  6  7  1  0  0  0
  8  9  1  0  0  0
  8 16  4  0  0  0
 10 11  4  0  0  0
 10 18  1  0  0  0
 11 12  1  0  0  0
 11 16  4  0  0  0
 12 13  2  0  0  0
 12 14  1  0  0  0
 12 15  2  0  0  0
 16 17  1  0  0  0
 18 19  1  0  0  0
 19 20  1  0  0  0
 19 26  1  0  0  0
 20 21  1  0  0  0
 21 22  1  0  0  0
 22 23  1  0  0  0
 23 24  1  0  0  0
 24 25  1  0  0  0
 25 26  1  0  0  0
  5 27  1  0  0  0
  5 28  1  0  0  0
  6 29  1  0  0  0
  6 30  1  0  0  0
  7 31  1  0  0  0
 14 32  1  0  0  0
 14 33  1  0  0  0
 18 34  1  0  0  0
 19 35  1  0  0  0
 20 36  1  0  0  0
 20 37  1  0  0  0
 21 38  1  0  0  0
 21 39  1  0  0  0
 22 40  1  0  0  0
 22 41  1  0  0  0
 23 42  1  0  0  0
 23 43  1  0  0  0
 24 44  1  0  0  0
 24 45  1  0  0  0
 25 46  1  0  0  0
 25 47  1  0  0  0
 26 48  1  0  0  0
 26 49  1  0  0  0
M  END
$$$$
