3q32_ligand
  -I-interpret- 

 58 62  0  0  0  0  0  0  0  0999 V2000
   -2.7510   42.7110    6.0000 C   0  0  0  0  0
   -3.7070   42.8030    4.9510 C   0  0  0  0  0
   -1.1580   49.1080   -3.8780 C   0  0  0  0  0
    0.3390   50.5360   -2.6200 C   0  0  0  0  0
   -5.0660   44.7730   -0.0490 C   0  0  0  0  0
   -1.6480   43.4700    5.6280 C   0  0  0  0  0
    0.9040   48.1990   -2.9760 C   0  0  0  0  0
   -0.8400   50.3780   -3.3560 C   0  0  0  0  0
   -0.2690   48.0290   -3.7050 C   0  0  0  0  0
    1.2070   49.4570   -2.4240 C   0  0  0  0  0
   -3.1230   43.5510    3.9450 C   0  0  0  0  0
   -6.1110   44.7360   -0.9670 C   0  0  0  0  0
   -5.5060   43.9340    1.0080 C   0  0  0  0  0
   -3.5460   43.9190    2.6250 C   0  0  0  0  0
   -1.4840   45.0600    2.4260 C   0  0  0  0  0
    2.1950   46.7040   -1.4210 C   0  0  0  0  0
    0.6150   46.2740    1.9270 C   0  0  0  0  0
   -1.2240   46.2260    0.2590 C   0  0  0  0  0
    1.6500   45.9720    0.8540 C   0  0  0  0  0
   -0.2180   46.0370   -0.8700 C   0  0  0  0  0
   -6.3420   45.3320   -2.3060 C   0  0  0  0  0
   -1.5520   52.4150   -4.4590 C   0  0  0  0  0
    1.8020   47.0030   -2.8420 C   0  0  0  0  0
   -6.7280   43.4460    0.7890 N   0  0  0  0  0
   -2.7610   44.7310    1.9770 N   0  0  0  0  0
   -1.0010   44.6640    3.5980 N   0  0  0  0  0
   -7.0350   43.8770   -0.4490 N   0  0  0  0  0
   -1.8700   43.9600    4.3680 N   0  0  0  0  0
   -0.7020   45.7470    1.5440 N   0  0  0  0  0
    1.2130   46.2720   -0.5270 N   0  0  0  0  0
   -4.8110   43.6440    2.1800 N   0  0  0  0  0
    3.3770   46.8710   -1.1030 O   0  0  0  0  0
   -1.7030   51.4370   -3.4420 O   0  0  0  0  0
   -0.5080   46.8080   -4.2080 F   0  0  0  0  0
    2.3330   49.6760   -1.7400 F   0  0  0  0  0
   -2.8630   42.1479    6.9266 H   0  0  0  0  0
   -4.7065   42.3682    4.9417 H   0  0  0  0  0
   -2.0940   48.9604   -4.4168 H   0  0  0  0  0
    0.5836   51.5095   -2.1951 H   0  0  0  0  0
   -4.1262   45.3201   -0.1242 H   0  0  0  0  0
   -0.7593   43.6453    6.2342 H   0  0  0  0  0
    0.5396   47.3546    2.0486 H   0  0  0  0  0
    0.9258   45.8008    2.8584 H   0  0  0  0  0
   -2.1189   45.6520    0.0186 H   0  0  0  0  0
   -1.4364   47.2910    0.3524 H   0  0  0  0  0
    1.8502   44.9015    0.8982 H   0  0  0  0  0
    2.5134   46.6051    1.0585 H   0  0  0  0  0
   -0.4728   46.7757   -1.6299 H   0  0  0  0  0
   -0.2903   44.9912   -1.1685 H   0  0  0  0  0
   -6.2965   46.4185   -2.2314 H   0  0  0  0  0
   -5.5742   44.9814   -2.9957 H   0  0  0  0  0
   -7.3244   45.0324   -2.6711 H   0  0  0  0  0
   -0.5743   52.8875   -4.3646 H   0  0  0  0  0
   -1.6334   51.9375   -5.4355 H   0  0  0  0  0
   -2.3327   53.1686   -4.3554 H   0  0  0  0  0
    2.7158   47.2156   -3.3968 H   0  0  0  0  0
    1.2553   46.1389   -3.2195 H   0  0  0  0  0
   -5.3642   43.1118    2.8516 H   0  0  0  0  0
  2  1  4  0  0  0
  6  1  4  0  0  0
 11  2  4  0  0  0
  3  8  4  0  0  0
  9  3  4  0  0  0
  4  8  4  0  0  0
 10  4  4  0  0  0
  5 12  4  0  0  0
 13  5  4  0  0  0
 28  6  4  0  0  0
  7  9  4  0  0  0
  7 10  4  0  0  0
 23  7  1  0  0  0
  8 33  1  0  0  0
  9 34  1  0  0  0
 10 35  1  0  0  0
 14 11  4  0  0  0
 11 28  4  0  0  0
 12 21  1  0  0  0
 12 27  4  0  0  0
 13 24  4  0  0  0
 31 13  1  0  0  0
 25 14  4  0  0  0
 14 31  1  0  0  0
 15 25  4  0  0  0
 15 26  4  0  0  0
 29 15  1  0  0  0
 16 23  1  0  0  0
 30 16  1  0  0  0
 16 32  2  0  0  0
 19 17  1  0  0  0
 17 29  1  0  0  0
 18 20  1  0  0  0
 29 18  1  0  0  0
 19 30  1  0  0  0
 20 30  1  0  0  0
 33 22  1  0  0  0
 24 27  4  0  0  0
 26 28  4  0  0  0
  1 36  1  0  0  0
  2 37  1  0  0  0
  3 38  1  0  0  0
  4 39  1  0  0  0
  5 40  1  0  0  0
  6 41  1  0  0  0
 17 42  1  0  0  0
 17 43  1  0  0  0
 18 44  1  0  0  0
 18 45  1  0  0  0
 19 46  1  0  0  0
 19 47  1  0  0  0
 20 48  1  0  0  0
 20 49  1  0  0  0
 21 50  1  0  0  0
 21 51  1  0  0  0
 21 52  1  0  0  0
 22 53  1  0  0  0
 22 54  1  0  0  0
 22 55  1  0  0  0
 23 56  1  0  0  0
 23 57  1  0  0  0
 31 58  1  0  0  0
M  END
$$$$
