2ya7_ligand
  -I-interpret- 

 43 43  0  0  0  0  0  0  0  0999 V2000
   20.2480  -30.4970   15.6440 C   0  0  0  0  0
   20.3370  -31.5390   14.9830 O   0  0  0  0  0
   20.4640  -29.3550   15.2030 O   0  0  0  0  0
   19.8220  -30.6580   17.0990 C   0  0  0  0  0
   19.6530  -29.5290   17.8940 C   0  0  0  0  0
   19.2710  -29.5820   19.3860 C   0  0  0  0  0
   19.3310  -31.0240   19.9230 C   0  0  0  0  0
   18.5020  -31.2130   21.1440 N   0  0  0  0  0
   19.0090  -31.8720   22.1810 C   0  0  0  0  0
   20.1490  -32.3540   22.2010 O   0  0  0  0  0
   18.0620  -32.0400   23.3790 C   0  0  0  0  0
   18.9340  -32.0700   18.8450 C   0  0  0  0  0
   19.6430  -31.9260   17.5500 O   0  0  0  0  0
   19.2060  -33.5350   19.2550 C   0  0  0  0  0
   20.5830  -33.6650   19.6910 O   0  0  0  0  0
   18.9410  -34.5370   18.1240 C   0  0  0  0  0
   17.5750  -34.4800   17.6650 O   0  0  0  0  0
   19.3030  -35.9580   18.5720 C   0  0  0  0  0
   19.1560  -36.8640   17.4840 O   0  0  0  0  0
   20.3610  -28.8070   19.9730 N   0  0  0  0  0
   20.2420  -27.7630   20.7600 C   0  0  0  0  0
   19.0550  -27.3360   21.1300 N   0  0  0  0  0
   21.3580  -27.1620   21.2010 N   0  0  0  0  0
   20.3304  -28.7122   15.9034 H   0  0  0  0  0
   19.7991  -28.5510   17.4354 H   0  0  0  0  0
   18.2648  -29.2203   19.5979 H   0  0  0  0  0
   20.3734  -31.1906   20.1946 H   0  0  0  0  0
   17.5534  -30.8403   21.1849 H   0  0  0  0  0
   17.8880  -33.1012   23.5570 H   0  0  0  0  0
   18.5140  -31.5913   24.2635 H   0  0  0  0  0
   17.1144  -31.5463   23.1635 H   0  0  0  0  0
   17.8688  -31.8620   18.7441 H   0  0  0  0  0
   18.5141  -33.7713   20.0634 H   0  0  0  0  0
   20.7523  -34.5750   19.9458 H   0  0  0  0  0
   19.5773  -34.2603   17.2834 H   0  0  0  0  0
   17.4486  -35.1190   16.9598 H   0  0  0  0  0
   18.6381  -36.2590   19.3816 H   0  0  0  0  0
   20.3378  -35.9734   18.9141 H   0  0  0  0  0
   19.3846  -37.7502   17.7739 H   0  0  0  0  0
   21.3098  -29.1070   19.7490 H   0  0  0  0  0
   18.2160  -27.8168   20.8054 H   0  0  0  0  0
   21.2918  -26.3630   21.8316 H   0  0  0  0  0
   22.2723  -27.5042   20.9055 H   0  0  0  0  0
  1  2  2  0  0  0
  1  3  1  0  0  0
  1  4  1  0  0  0
  4  5  2  0  0  0
  4 13  1  0  0  0
  5  6  1  0  0  0
  6  7  1  0  0  0
  6 20  1  0  0  0
  7  8  1  0  0  0
  7 12  1  0  0  0
  8  9  1  0  0  0
  9 10  2  0  0  0
  9 11  1  0  0  0
 12 13  1  0  0  0
 12 14  1  0  0  0
 14 15  1  0  0  0
 14 16  1  0  0  0
 16 17  1  0  0  0
 16 18  1  0  0  0
 18 19  1  0  0  0
 20 21  1  0  0  0
 21 22  2  0  0  0
 21 23  1  0  0  0
  3 24  1  0  0  0
  5 25  1  0  0  0
  6 26  1  0  0  0
  7 27  1  0  0  0
  8 28  1  0  0  0
 11 29  1  0  0  0
 11 30  1  0  0  0
 11 31  1  0  0  0
 12 32  1  0  0  0
 14 33  1  0  0  0
 15 34  1  0  0  0
 16 35  1  0  0  0
 17 36  1  0  0  0
 18 37  1  0  0  0
 18 38  1  0  0  0
 19 39  1  0  0  0
 20 40  1  0  0  0
 22 41  1  0  0  0
 23 42  1  0  0  0
 23 43  1  0  0  0
M  END
$$$$
