5kjm_ligand
  -I-interpret- 

 80 85  0  0  0  0  0  0  0  0999 V2000
  -55.9940   12.4910   -0.1150 C   0  0  0  0  0
  -57.2530   12.0210   -0.3990 C   0  0  0  0  0
  -58.2910   12.8970   -0.6740 C   0  0  0  0  0
  -56.3920   16.1740   -0.4020 C   0  0  0  0  0
  -55.4720   16.7480    0.5870 C   0  0  0  0  0
  -55.1980   18.1230    0.4910 C   0  0  0  0  0
  -55.7950   18.8660   -0.5150 C   0  0  0  0  0
  -55.7670   20.2120   -0.9170 C   0  0  0  0  0
  -56.6410   18.2330   -1.3910 C   0  0  0  0  0
  -54.2740   18.6890    1.4870 C   0  0  0  0  0
  -53.2300   18.0840    1.7060 O   0  0  0  0  0
  -54.6770   19.7930    2.1180 N   0  0  0  0  0
  -53.9190   20.3310    3.2220 C   0  0  0  0  0
  -54.5430   19.9590    4.5450 C   0  0  0  0  0
  -54.7580   18.4680    4.6830 C   0  0  0  0  0
  -55.6180   16.4830    7.6640 C   0  0  0  0  0
  -60.5410   16.9880   -0.1850 C   0  0  0  0  0
  -59.6960   15.7940    0.2020 C   0  0  0  0  0
  -62.3780   17.8240   -1.5400 C   0  0  0  0  0
  -63.8780   17.6480   -1.7350 C   0  0  0  0  0
  -64.5840   16.7740   -0.7490 C   0  0  0  0  0
  -55.7510   13.8390   -0.1480 C   0  0  0  0  0
  -64.5790   17.0640    0.6040 C   0  0  0  0  0
  -65.2530   16.2760    1.5160 C   0  0  0  0  0
  -65.3340   15.7060   -1.1900 C   0  0  0  0  0
  -56.7570   14.7490   -0.4050 C   0  0  0  0  0
  -58.0500   14.2690   -0.6920 C   0  0  0  0  0
  -66.0060   15.2160    1.0560 C   0  0  0  0  0
  -66.0250   14.9260   -0.2930 C   0  0  0  0  0
  -56.5840   17.6460    7.7970 C   0  0  0  0  0
  -55.0230   16.6310    6.2980 C   0  0  0  0  0
  -56.3950   18.5310    6.5850 C   0  0  0  0  0
  -60.1150   14.7680   -1.9480 C   0  0  0  0  0
  -61.0080   15.9610   -2.3050 C   0  0  0  0  0
  -56.5530   20.3920   -1.9800 N   0  0  0  0  0
  -56.9620   16.9440   -1.3820 N   0  0  0  0  0
  -57.0920   19.1480   -2.2650 N   0  0  0  0  0
  -59.0980   15.2020   -0.9800 N   0  0  0  0  0
  -55.0710   18.0910    6.0730 N   0  3  0  0  0
  -61.6020   16.6170   -1.1310 N   0  3  0  0  0
  -66.8400   14.1980    2.1770 Cl  0  0  0  0  0
  -66.9160   13.5810   -0.8980 Cl  0  0  0  0  0
  -55.1928   11.7956    0.1352 H   0  0  0  0  0
  -57.4378   10.9468   -0.4082 H   0  0  0  0  0
  -59.2915   12.5143   -0.8753 H   0  0  0  0  0
  -55.0195   16.1326    1.3646 H   0  0  0  0  0
  -55.1868   20.9961   -0.4306 H   0  0  0  0  0
  -55.5309   20.2625    1.8167 H   0  0  0  0  0
  -53.9045   21.4176    3.1374 H   0  0  0  0  0
  -52.9104   19.9194    3.1850 H   0  0  0  0  0
  -55.5156   20.4470    4.6079 H   0  0  0  0  0
  -53.8661   20.2767    5.3381 H   0  0  0  0  0
  -53.8409   17.9590    4.3865 H   0  0  0  0  0
  -55.5986   18.1814    4.0510 H   0  0  0  0  0
  -56.1206   15.5234    7.7849 H   0  0  0  0  0
  -54.8548   16.4996    8.4420 H   0  0  0  0  0
  -59.8962   17.7254   -0.6631 H   0  0  0  0  0
  -61.0073   17.3860    0.7162 H   0  0  0  0  0
  -60.3272   15.0531    0.6927 H   0  0  0  0  0
  -58.9053   16.1195    0.8780 H   0  0  0  0  0
  -62.2657   18.5400   -0.7259 H   0  0  0  0  0
  -61.9835   18.1157   -2.5133 H   0  0  0  0  0
  -64.0006   17.1667   -2.7053 H   0  0  0  0  0
  -64.3142   18.6406   -1.6233 H   0  0  0  0  0
  -54.7392   14.2017    0.0330 H   0  0  0  0  0
  -64.0295   17.9360    0.9587 H   0  0  0  0  0
  -65.1908   16.4885    2.5833 H   0  0  0  0  0
  -65.3799   15.4782   -2.2549 H   0  0  0  0  0
  -56.3867   18.2040    8.7123 H   0  0  0  0  0
  -57.6113   17.2855    7.8506 H   0  0  0  0  0
  -55.5639   16.0677    5.5376 H   0  0  0  0  0
  -54.0136   16.2253    6.2299 H   0  0  0  0  0
  -56.4309   19.5944    6.8214 H   0  0  0  0  0
  -57.1939   18.4280    5.8507 H   0  0  0  0  0
  -59.6282   14.3919   -2.8478 H   0  0  0  0  0
  -60.7209   13.9736   -1.5122 H   0  0  0  0  0
  -61.8255   15.5869   -2.9213 H   0  0  0  0  0
  -60.3853   16.6973   -2.8131 H   0  0  0  0  0
  -54.3373   18.5861    6.5799 H   0  0  0  0  0
  -62.2432   15.9662   -0.6775 H   0  0  0  0  0
  2  1  4  0  0  0
 22  1  4  0  0  0
  3  2  4  0  0  0
 27  3  4  0  0  0
  4  5  4  0  0  0
 26  4  1  0  0  0
  4 36  4  0  0  0
  5  6  4  0  0  0
  6  7  4  0  0  0
  6 10  1  0  0  0
  7  8  4  0  0  0
  9  7  4  0  0  0
  8 35  4  0  0  0
 36  9  4  0  0  0
  9 37  4  0  0  0
 10 11  2  0  0  0
 10 12  1  0  0  0
 12 13  1  0  0  0
 13 14  1  0  0  0
 14 15  1  0  0  0
 15 39  1  0  0  0
 30 16  1  0  0  0
 31 16  1  0  0  0
 18 17  1  0  0  0
 17 40  1  0  0  0
 38 18  1  0  0  0
 19 20  1  0  0  0
 40 19  1  0  0  0
 20 21  1  0  0  0
 21 23  4  0  0  0
 21 25  4  0  0  0
 26 22  4  0  0  0
 23 24  4  0  0  0
 24 28  4  0  0  0
 25 29  4  0  0  0
 27 26  4  0  0  0
 38 27  1  0  0  0
 29 28  4  0  0  0
 28 41  1  0  0  0
 29 42  1  0  0  0
 32 30  1  0  0  0
 39 31  1  0  0  0
 39 32  1  0  0  0
 33 34  1  0  0  0
 33 38  1  0  0  0
 34 40  1  0  0  0
 35 37  4  0  0  0
  1 43  1  0  0  0
  2 44  1  0  0  0
  3 45  1  0  0  0
  5 46  1  0  0  0
  8 47  1  0  0  0
 12 48  1  0  0  0
 13 49  1  0  0  0
 13 50  1  0  0  0
 14 51  1  0  0  0
 14 52  1  0  0  0
 15 53  1  0  0  0
 15 54  1  0  0  0
 16 55  1  0  0  0
 16 56  1  0  0  0
 17 57  1  0  0  0
 17 58  1  0  0  0
 18 59  1  0  0  0
 18 60  1  0  0  0
 19 61  1  0  0  0
 19 62  1  0  0  0
 20 63  1  0  0  0
 20 64  1  0  0  0
 22 65  1  0  0  0
 23 66  1  0  0  0
 24 67  1  0  0  0
 25 68  1  0  0  0
 30 69  1  0  0  0
 30 70  1  0  0  0
 31 71  1  0  0  0
 31 72  1  0  0  0
 32 73  1  0  0  0
 32 74  1  0  0  0
 33 75  1  0  0  0
 33 76  1  0  0  0
 34 77  1  0  0  0
 34 78  1  0  0  0
 39 79  1  0  0  0
 40 80  1  0  0  0
M  END
$$$$
