### 
### Created by X-TOOL on Mon Sep 10 21:13:04 2018
### 

@<TRIPOS>MOLECULE
3l8s_ligand
   56    58     1     0     0
SMALL
GAST_HUCK


@<TRIPOS>ATOM
      1 NAA        21.0140    0.4760  -24.5220 N.am      1 BFF        -0.3089
      2 OAB        21.7430    2.2140  -25.7390 O.2       1 BFF        -0.4145
      3 OAC        22.0450    6.6060  -23.3770 O.2       1 BFF        -0.3819
      4 FAD        25.4300   -0.9600  -21.2410 F         1 BFF        -0.1894
      5 FAE        20.8170   -1.7580  -20.1020 F         1 BFF        -0.1894
      6 BRAF       24.0190   -5.8240  -21.2030 Br        1 BFF        -0.0581
      7 CAG        24.6160   -3.1200  -21.1680 C.ar      1 BFF        -0.0292
      8 CAH        22.3110   -3.5770  -20.5800 C.ar      1 BFF        -0.0292
      9 CAI        20.0580    8.6420  -24.7530 C.3       1 BFF        -0.0347
     10 CAJ        18.5940    8.2010  -25.0460 C.3       1 BFF        -0.0699
     11 CAK        17.1380    3.8590  -23.9630 C.3       1 BFF        -0.0736
     12 CAL        18.2980    3.9160  -22.9800 C.3       1 BFF        -0.0736
     13 CAM        21.1230    8.0130  -25.6970 C.3       1 BFF         0.0322
     14 CAN        17.8800    7.5050  -23.8640 C.3       1 BFF        -0.1130
     15 CAO        16.8160    5.3340  -24.2640 C.3       1 BFF        -0.1131
     16 CAP        18.4430    5.4190  -22.6930 C.3       1 BFF        -0.1131
     17 CAQ        22.8840    0.0270  -20.5690 C.3       1 BFF         0.1132
     18 NAR        22.5210    2.7940  -21.1080 N.2       1 BFF        -0.2960
     19 NAS        21.1840    6.5510  -25.4750 N.am      1 BFF        -0.2641
     20 NAT        21.5190    4.6260  -24.3330 N.am      1 BFF        -0.1760
     21 OAU        22.4380    0.5340  -21.8790 O.3       1 BFF        -0.2886
     22 SAV        22.2460    4.3050  -21.7380 S.3       1 BFF         0.0214
     23 CAW        21.5810    1.6750  -24.6480 C.2       1 BFF         0.1722
     24 CAX        21.6100    5.9640  -24.3410 C.2       1 BFF         0.3085
     25 CAY        23.5880   -4.0060  -20.9450 C.ar      1 BFF         0.0022
     26 CAZ        24.3840   -1.7750  -21.0240 C.ar      1 BFF         0.1369
     27 CBA        22.0590   -2.2090  -20.4400 C.ar      1 BFF         0.1369
     28 CBB        22.3010    1.8880  -22.0870 C.2       1 BFF         0.1421
     29 CBC        23.1190   -1.3170  -20.6480 C.ar      1 BFF         0.0582
     30 CBD        21.8620    3.8330  -23.3070 C.2       1 BFF         0.1795
     31 CBE        21.9190    2.4410  -23.3410 C.2       1 BFF         0.1250
     32 NBF        18.0620    6.0400  -23.9680 N.4       1 BFF         0.4029
     33 H          20.6967   -0.0277  -25.3503 H         1 BFF         0.1787
     34 H          20.8972    0.0617  -23.5973 H         1 BFF         0.1787
     35 H          25.6032   -3.4817  -21.4557 H         1 BFF         0.0578
     36 H          21.5166   -4.3027  -20.4055 H         1 BFF         0.0578
     37 H          20.2940    8.3120  -23.7413 H         1 BFF         0.0284
     38 H          20.1010    9.7214  -24.8982 H         1 BFF         0.0284
     39 H          18.6374    7.4780  -25.8606 H         1 BFF         0.0246
     40 H          18.0288    9.1058  -25.2697 H         1 BFF         0.0246
     41 H          16.2791    3.3288  -23.5515 H         1 BFF         0.0245
     42 H          17.3939    3.3040  -24.8656 H         1 BFF         0.0245
     43 H          19.2105    3.4749  -23.3810 H         1 BFF         0.0245
     44 H          18.1136    3.3320  -22.0783 H         1 BFF         0.0245
     45 H          22.0980    8.4519  -25.4854 H         1 BFF         0.0518
     46 H          20.8491    8.2102  -26.7334 H         1 BFF         0.0518
     47 H          16.8163    7.7410  -23.8935 H         1 BFF         0.0017
     48 H          18.3064    7.8574  -22.9248 H         1 BFF         0.0017
     49 H          15.9819    5.7033  -23.6673 H         1 BFF         0.0017
     50 H          16.4934    5.4829  -25.2945 H         1 BFF         0.0017
     51 H          19.4493    5.6921  -22.3754 H         1 BFF         0.0017
     52 H          17.8223    5.7508  -21.8607 H         1 BFF         0.0017
     53 H          22.1077    0.2140  -19.8270 H         1 BFF         0.0778
     54 H          23.8027    0.5369  -20.2791 H         1 BFF         0.0778
     55 H          20.8812    5.9440  -26.2368 H         1 BFF         0.1859
     56 H          21.1602    4.1752  -25.1747 H         1 BFF         0.2528
@<TRIPOS>BOND
     1   23    1 am 
     2   23    2 2  
     3   24    3 2  
     4   26    4 1  
     5   27    5 1  
     6   25    6 1  
     7    7   25 ar 
     8   26    7 ar 
     9    8   25 ar 
    10   27    8 ar 
    11    9   10 1  
    12   13    9 1  
    13   10   14 1  
    14   12   11 1  
    15   15   11 1  
    16   16   12 1  
    17   19   13 1  
    18   14   32 1  
    19   32   15 1  
    20   32   16 1  
    21   21   17 1  
    22   17   29 1  
    23   18   22 1  
    24   28   18 2  
    25   24   19 am 
    26   20   24 am 
    27   30   20 1  
    28   28   21 1  
    29   22   30 1  
    30   31   23 1  
    31   29   26 ar 
    32   29   27 ar 
    33   28   31 1  
    34   30   31 2  
    35    1   33 1  
    36    1   34 1  
    37    7   35 1  
    38    8   36 1  
    39    9   37 1  
    40    9   38 1  
    41   10   39 1  
    42   10   40 1  
    43   11   41 1  
    44   11   42 1  
    45   12   43 1  
    46   12   44 1  
    47   13   45 1  
    48   13   46 1  
    49   14   47 1  
    50   14   48 1  
    51   15   49 1  
    52   15   50 1  
    53   16   51 1  
    54   16   52 1  
    55   17   53 1  
    56   17   54 1  
    57   19   55 1  
    58   20   56 1  
@<TRIPOS>SUBSTRUCTURE
     1 BFF         1

