2pql_ligand
  -I-interpret- 

 24 25  0  0  0  0  0  0  0  0999 V2000
   13.6610  -23.7050    6.3550 N   0  3  0  0  0
   12.4920  -22.8570    6.1960 C   0  0  0  0  0
   12.9210  -21.3880    6.1270 C   0  0  0  0  0
   11.7170  -20.5530    5.7270 C   0  0  0  0  0
   10.3550  -20.8110    5.9710 C   0  0  0  0  0
    9.5630  -19.8310    5.4330 N   0  0  0  0  0
   10.4050  -18.9530    4.8570 C   0  0  0  0  0
   11.6800  -19.3700    5.0250 C   0  0  0  0  0
   10.0080  -17.8030    4.2130 C   0  0  0  0  0
   11.0590  -17.0130    3.7660 C   0  0  0  0  0
   12.3800  -17.4760    3.8130 C   0  0  0  0  0
   12.7260  -18.6170    4.5250 C   0  0  0  0  0
   13.3680  -24.6810    6.4002 H   0  0  0  0  0
   14.2861  -23.5729    5.5599 H   0  0  0  0  0
   14.1467  -23.4544    7.2162 H   0  0  0  0  0
   11.8263  -22.9981    7.0475 H   0  0  0  0  0
   11.9755  -23.1249    5.2743 H   0  0  0  0  0
   13.7181  -21.2671    5.3934 H   0  0  0  0  0
   13.2932  -21.0629    7.0985 H   0  0  0  0  0
    9.9796  -21.6769    6.5164 H   0  0  0  0  0
    8.9613  -17.5361    4.0668 H   0  0  0  0  0
   10.8528  -16.0176    3.3726 H   0  0  0  0  0
   13.1552  -16.9275    3.2778 H   0  0  0  0  0
   13.7661  -18.9034    4.6812 H   0  0  0  0  0
  1  2  1  0  0  0
  2  3  1  0  0  0
  3  4  1  0  0  0
  4  5  4  0  0  0
  4  8  4  0  0  0
  5  6  4  0  0  0
  6  7  4  0  0  0
  7  8  4  0  0  0
  7  9  4  0  0  0
  8 12  4  0  0  0
  9 10  4  0  0  0
 10 11  4  0  0  0
 11 12  4  0  0  0
  1 13  1  0  0  0
  1 14  1  0  0  0
  1 15  1  0  0  0
  2 16  1  0  0  0
  2 17  1  0  0  0
  3 18  1  0  0  0
  3 19  1  0  0  0
  5 20  1  0  0  0
  9 21  1  0  0  0
 10 22  1  0  0  0
 11 23  1  0  0  0
 12 24  1  0  0  0
M  END
$$$$
