### 
### Created by X-TOOL on Mon Aug  2 16:10:52 2021
### 

@<TRIPOS>MOLECULE
6hzd_ligand
  151   152     1     0     0
SMALL
GAST_HUCK


@<TRIPOS>ATOM
      1 N          55.3900  -35.5790   -8.4130 N.am      1 ARG        -0.2656
      2 CA         54.8490  -34.3580   -7.7810 C.3       1 ARG         0.1310
      3 C          54.3760  -34.6770   -6.4890 C.2       1 ARG         0.2039
      4 O          54.0340  -35.8270   -6.1820 O.2       1 ARG        -0.3944
      5 CB         53.6910  -33.7970   -8.6110 C.3       1 ARG        -0.0092
      6 CG         54.2030  -33.2280   -9.9410 C.3       1 ARG        -0.0156
      7 CD         54.4580  -31.7290   -9.7610 C.3       1 ARG         0.0627
      8 NE         54.4520  -31.0290  -11.0590 N.pl3     1 ARG        -0.2723
      9 CZ         55.4010  -30.1490  -11.4240 C.cat     1 ARG         0.2882
     10 NH1        55.3240  -29.5290  -12.6060 N.pl3     1 ARG        -0.2849
     11 NH2        56.4220  -29.8760  -10.5940 N.pl3     1 ARG        -0.2849
     12 N          54.2880  -33.6520   -5.5460 N.am      1 ARG        -0.2637
     13 CA         53.8070  -33.8560   -4.1520 C.3       1 ARG         0.1311
     14 C          52.4590  -34.2720   -4.1480 C.2       1 ARG         0.2039
     15 O          52.0310  -35.0360   -3.2750 O.2       1 ARG        -0.3944
     16 CB         54.0000  -32.5380   -3.3930 C.3       1 ARG        -0.0092
     17 CG         53.4660  -32.6030   -1.9350 C.3       1 ARG        -0.0156
     18 CD         54.1000  -31.4460   -1.1550 C.3       1 ARG         0.0627
     19 NE         53.4740  -31.1870    0.1580 N.pl3     1 ARG        -0.2723
     20 CZ         52.2880  -30.5710    0.3610 C.cat     1 ARG         0.2882
     21 NH1        51.8500  -30.3400    1.6240 N.pl3     1 ARG        -0.2849
     22 NH2        51.5490  -30.1790   -0.6880 N.pl3     1 ARG        -0.2849
     23 N          51.5920  -33.8400   -5.1720 N.am      1 ARG        -0.2637
     24 CA         50.1630  -34.2610   -5.2500 C.3       1 ARG         0.1311
     25 C          49.8920  -34.7150   -6.5560 C.2       1 ARG         0.2039
     26 O          50.3950  -34.1570   -7.5310 O.2       1 ARG        -0.3944
     27 CB         49.2140  -33.1120   -4.8700 C.3       1 ARG        -0.0092
     28 CG         49.5290  -32.6030   -3.4470 C.3       1 ARG        -0.0156
     29 CD         49.0220  -33.6070   -2.3890 C.3       1 ARG         0.0627
     30 NE         49.2950  -33.1520   -1.0090 N.pl3     1 ARG        -0.2723
     31 CZ         50.1730  -33.7370   -0.1600 C.cat     1 ARG         0.2882
     32 NH1        50.3080  -33.2870    1.1070 N.pl3     1 ARG        -0.2849
     33 NH2        50.9040  -34.7900   -0.5550 N.pl3     1 ARG        -0.2849
     34 N          49.0720  -35.8370   -6.7680 N.am      1 ARG        -0.2637
     35 CA         48.7930  -36.3790   -8.1300 C.3       1 ARG         0.1310
     36 C          47.4360  -36.2750   -8.4860 C.2       1 ARG         0.2039
     37 O          46.5670  -36.3160   -7.6190 O.2       1 ARG        -0.3944
     38 CB         49.0860  -37.8780   -8.0920 C.3       1 ARG        -0.0123
     39 CG         50.5030  -38.1860   -7.6060 C.3       1 ARG        -0.0470
     40 CD         51.4870  -38.1720   -8.7480 C.3       1 ARG        -0.0325
     41 CE         52.6480  -39.1200   -8.4130 C.3       1 ARG         0.0309
     42 NZ         53.6660  -38.5230   -7.5150 N.am      1 ARG        -0.2870
     43 N          47.1540  -36.1970   -9.8020 N.am      1 ARG        -0.2637
     44 CA         45.7670  -36.2140  -10.3060 C.3       1 ARG         0.1311
     45 C          45.1870  -37.5780   -9.9070 C.2       1 ARG         0.2035
     46 O          45.8690  -38.5810  -10.0800 O.2       1 ARG        -0.3944
     47 CB         45.6960  -36.0460  -11.8290 C.3       1 ARG        -0.0092
     48 CG         46.2390  -34.6910  -12.3030 C.3       1 ARG        -0.0156
     49 CD         46.5100  -34.8070  -13.8120 C.3       1 ARG         0.0627
     50 NE         46.9420  -33.5190  -14.3820 N.pl3     1 ARG        -0.2723
     51 CZ         48.2050  -33.0740  -14.2970 C.cat     1 ARG         0.2882
     52 NH1        48.5480  -31.8950  -14.8400 N.pl3     1 ARG        -0.2849
     53 NH2        49.1220  -33.8020  -13.6450 N.pl3     1 ARG        -0.2849
     54 N23        43.9610  -37.6110   -9.3550 N.am      1 ARG        -0.2737
     55 C16        43.3680  -38.8850   -8.8820 C.3       1 ARG         0.0645
     56 C17        43.4890  -38.9510   -7.4590 C.ar      1 ARG        -0.0210
     57 C22        42.4080  -38.6860   -6.6210 C.ar      1 ARG        -0.0584
     58 C21        42.5400  -38.7400   -5.2270 C.ar      1 ARG        -0.0633
     59 C24        43.7540  -39.0660   -4.6160 C.ar      1 ARG         0.0188
     60 C27        43.8880  -39.1190   -3.2060 C.cat     1 ARG         0.2318
     61 N35        45.0710  -39.4140   -2.6670 N.pl3     1 ARG        -0.2729
     62 N34        42.8390  -38.8200   -2.4430 N.pl3     1 ARG        -0.2729
     63 C19        44.8310  -39.3270   -5.4550 C.ar      1 ARG        -0.0633
     64 C18        44.7020  -39.2690   -6.8510 C.ar      1 ARG        -0.0584
     65 C1         56.5520  -36.1900   -7.9210 C.2       1 ARG         0.1784
     66 C2         56.9860  -37.3730   -8.5110 C.3       1 ARG         0.0394
     67 C3         57.2180  -38.4300   -7.4250 C.3       1 ARG        -0.0191
     68 C4         55.9330  -38.6700   -6.6090 C.3       1 ARG         0.0393
     69 C5         54.9130  -39.1740   -7.4320 C.2       1 ARG         0.1761
     70 O1         57.1500  -35.6980   -6.9610 O.2       1 ARG        -0.3969
     71 O5         55.0770  -40.2040   -8.0870 O.2       1 ARG        -0.3971
     72 H1         54.9210  -35.9750   -9.2024 H         1 ARG         0.1883
     73 H2         55.6449  -33.6023   -7.7071 H         1 ARG         0.0800
     74 H3         53.1943  -32.9965   -8.0432 H         1 ARG         0.0313
     75 H4         52.9705  -34.6024   -8.8163 H         1 ARG         0.0313
     76 H5         53.4491  -33.3845  -10.7265 H         1 ARG         0.0301
     77 H6         55.1385  -33.7322  -10.2249 H         1 ARG         0.0301
     78 H7         55.4373  -31.5864   -9.2807 H         1 ARG         0.0689
     79 H8         53.6704  -31.3051   -9.1208 H         1 ARG         0.0689
     80 H9         53.6842  -31.2234  -11.7175 H         1 ARG         0.2642
     81 H10        56.0525  -28.8555  -12.8827 H         1 ARG         0.2615
     82 H11        54.5362  -29.7249  -13.2399 H         1 ARG         0.2615
     83 H12        56.4857  -30.3510   -9.6823 H         1 ARG         0.2615
     84 H13        57.1408  -29.1917  -10.8695 H         1 ARG         0.2615
     85 H14        54.5629  -32.7308   -5.8215 H         1 ARG         0.1883
     86 H15        54.4131  -34.6376   -3.6706 H         1 ARG         0.0800
     87 H16        53.4638  -31.7411   -3.9291 H         1 ARG         0.0313
     88 H17        55.0740  -32.3022   -3.3644 H         1 ARG         0.0313
     89 H18        53.7462  -33.5625   -1.4757 H         1 ARG         0.0301
     90 H19        52.3707  -32.5011   -1.9322 H         1 ARG         0.0301
     91 H20        54.0167  -30.5332   -1.7631 H         1 ARG         0.0689
     92 H21        55.1618  -31.6815   -0.9906 H         1 ARG         0.0689
     93 H22        53.9870  -31.5040    0.9930 H         1 ARG         0.2642
     94 H23        50.9462  -29.8706    1.7779 H         1 ARG         0.2615
     95 H24        52.4213  -30.6340    2.4291 H         1 ARG         0.2615
     96 H25        51.8819  -30.3545   -1.6468 H         1 ARG         0.2615
     97 H26        50.6488  -29.7025   -0.5345 H         1 ARG         0.2615
     98 H27        51.9497  -33.2258   -5.8754 H         1 ARG         0.1883
     99 H28        50.0017  -35.0899   -4.5451 H         1 ARG         0.0800
    100 H29        48.1755  -33.4731   -4.9042 H         1 ARG         0.0313
    101 H30        49.3390  -32.2865   -5.5862 H         1 ARG         0.0313
    102 H31        49.0343  -31.6329   -3.2917 H         1 ARG         0.0301
    103 H32        50.6169  -32.4814   -3.3386 H         1 ARG         0.0301
    104 H33        49.5233  -34.5730   -2.5488 H         1 ARG         0.0689
    105 H34        47.9361  -33.7326   -2.5119 H         1 ARG         0.0689
    106 H35        48.7788  -32.3285   -0.6679 H         1 ARG         0.2642
    107 H36        50.9785  -33.7386    1.7452 H         1 ARG         0.2615
    108 H37        49.7404  -32.4924    1.4345 H         1 ARG         0.2615
    109 H38        50.8147  -35.1472   -1.5169 H         1 ARG         0.2615
    110 H39        51.5547  -35.2414    0.1036 H         1 ARG         0.2615
    111 H40        48.6603  -36.2888   -5.9765 H         1 ARG         0.1883
    112 H41        49.4222  -35.8665   -8.8726 H         1 ARG         0.0800
    113 H42        48.9642  -38.2870   -9.1058 H         1 ARG         0.0312
    114 H43        48.3676  -38.3607   -7.4131 H         1 ARG         0.0312
    115 H44        50.5128  -39.1806   -7.1363 H         1 ARG         0.0268
    116 H45        50.8012  -37.4283   -6.8664 H         1 ARG         0.0268
    117 H46        51.8725  -37.1518   -8.8913 H         1 ARG         0.0285
    118 H47        50.9890  -38.5086   -9.6692 H         1 ARG         0.0285
    119 H48        53.1413  -39.4103   -9.3524 H         1 ARG         0.0520
    120 H49        52.2355  -40.0147   -7.9237 H         1 ARG         0.0520
    121 H50        53.4755  -37.6933   -6.9904 H         1 ARG         0.1850
    122 H51        47.9070  -36.1255  -10.4561 H         1 ARG         0.1883
    123 H52        45.1923  -35.4048   -9.8318 H         1 ARG         0.0800
    124 H53        44.6457  -36.1334  -12.1438 H         1 ARG         0.0313
    125 H54        46.2874  -36.8456  -12.2989 H         1 ARG         0.0313
    126 H55        47.1717  -34.4526  -11.7707 H         1 ARG         0.0301
    127 H56        45.4968  -33.9015  -12.1139 H         1 ARG         0.0301
    128 H57        45.5880  -35.1305  -14.3172 H         1 ARG         0.0689
    129 H58        47.3002  -35.5542  -13.9772 H         1 ARG         0.0689
    130 H59        46.2450  -32.9354  -14.8663 H         1 ARG         0.2642
    131 H60        49.5193  -31.5594  -14.7711 H         1 ARG         0.2615
    132 H61        47.8398  -31.3261  -15.3255 H         1 ARG         0.2615
    133 H62        48.8600  -34.7066  -13.2280 H         1 ARG         0.2615
    134 H63        50.0888  -33.4569  -13.5609 H         1 ARG         0.2615
    135 H64        43.4407  -36.7621   -9.2620 H         1 ARG         0.1878
    136 H65        43.9012  -39.7323   -9.3377 H         1 ARG         0.0683
    137 H66        42.3057  -38.9254   -9.1646 H         1 ARG         0.0683
    138 H67        41.4474  -38.4335   -7.0552 H         1 ARG         0.0557
    139 H68        41.6781  -38.5233   -4.6063 H         1 ARG         0.0599
    140 H69        45.1748  -39.4541   -1.6430 H         1 ARG         0.3180
    141 H70        45.8813  -39.6019   -3.2745 H         1 ARG         0.3180
    142 H71        41.9331  -38.5948   -2.8783 H         1 ARG         0.3180
    143 H72        42.9332  -38.8139   -1.4173 H         1 ARG         0.3180
    144 H73        45.7915  -39.5809   -5.0214 H         1 ARG         0.0599
    145 H74        45.5664  -39.4765   -7.4713 H         1 ARG         0.0557
    146 H75        57.9265  -37.1899   -9.0514 H         1 ARG         0.0504
    147 H76        56.2222  -37.7330   -9.2159 H         1 ARG         0.0504
    148 H77        58.0143  -38.0839   -6.7496 H         1 ARG         0.0314
    149 H78        57.5245  -39.3735   -7.9001 H         1 ARG         0.0314
    150 H79        55.6032  -37.7189   -6.1656 H         1 ARG         0.0504
    151 H80        56.1429  -39.3946   -5.8084 H         1 ARG         0.0504
@<TRIPOS>BOND
     1    1    2 1  
     2    1   65 am 
     3    2    3 1  
     4    2    5 1  
     5    3    4 2  
     6    3   12 am 
     7    5    6 1  
     8    6    7 1  
     9    7    8 1  
    10    8    9 ar 
    11    9   10 ar 
    12    9   11 ar 
    13   12   13 1  
    14   13   14 1  
    15   13   16 1  
    16   14   15 2  
    17   14   23 am 
    18   16   17 1  
    19   17   18 1  
    20   18   19 1  
    21   19   20 ar 
    22   20   21 ar 
    23   20   22 ar 
    24   23   24 1  
    25   24   25 1  
    26   24   27 1  
    27   25   26 2  
    28   25   34 am 
    29   27   28 1  
    30   28   29 1  
    31   29   30 1  
    32   30   31 ar 
    33   31   32 ar 
    34   31   33 ar 
    35   34   35 1  
    36   35   36 1  
    37   35   38 1  
    38   36   37 2  
    39   36   43 am 
    40   38   39 1  
    41   39   40 1  
    42   40   41 1  
    43   41   42 1  
    44   42   69 am 
    45   43   44 1  
    46   44   45 1  
    47   44   47 1  
    48   45   46 2  
    49   45   54 am 
    50   47   48 1  
    51   48   49 1  
    52   49   50 1  
    53   50   51 ar 
    54   51   52 ar 
    55   51   53 ar 
    56   54   55 1  
    57   55   56 1  
    58   56   57 ar 
    59   56   64 ar 
    60   57   58 ar 
    61   58   59 ar 
    62   59   60 1  
    63   59   63 ar 
    64   60   61 ar 
    65   60   62 ar 
    66   63   64 ar 
    67   65   66 1  
    68   65   70 2  
    69   66   67 1  
    70   67   68 1  
    71   68   69 1  
    72   69   71 2  
    73    1   72 1  
    74    2   73 1  
    75    5   74 1  
    76    5   75 1  
    77    6   76 1  
    78    6   77 1  
    79    7   78 1  
    80    7   79 1  
    81    8   80 1  
    82   10   81 1  
    83   10   82 1  
    84   11   83 1  
    85   11   84 1  
    86   12   85 1  
    87   13   86 1  
    88   16   87 1  
    89   16   88 1  
    90   17   89 1  
    91   17   90 1  
    92   18   91 1  
    93   18   92 1  
    94   19   93 1  
    95   21   94 1  
    96   21   95 1  
    97   22   96 1  
    98   22   97 1  
    99   23   98 1  
   100   24   99 1  
   101   27  100 1  
   102   27  101 1  
   103   28  102 1  
   104   28  103 1  
   105   29  104 1  
   106   29  105 1  
   107   30  106 1  
   108   32  107 1  
   109   32  108 1  
   110   33  109 1  
   111   33  110 1  
   112   34  111 1  
   113   35  112 1  
   114   38  113 1  
   115   38  114 1  
   116   39  115 1  
   117   39  116 1  
   118   40  117 1  
   119   40  118 1  
   120   41  119 1  
   121   41  120 1  
   122   42  121 1  
   123   43  122 1  
   124   44  123 1  
   125   47  124 1  
   126   47  125 1  
   127   48  126 1  
   128   48  127 1  
   129   49  128 1  
   130   49  129 1  
   131   50  130 1  
   132   52  131 1  
   133   52  132 1  
   134   53  133 1  
   135   53  134 1  
   136   54  135 1  
   137   55  136 1  
   138   55  137 1  
   139   57  138 1  
   140   58  139 1  
   141   61  140 1  
   142   61  141 1  
   143   62  142 1  
   144   62  143 1  
   145   63  144 1  
   146   64  145 1  
   147   66  146 1  
   148   66  147 1  
   149   67  148 1  
   150   67  149 1  
   151   68  150 1  
   152   68  151 1  
@<TRIPOS>SUBSTRUCTURE
     1 ARG         1

