6hzd_ligand
  -I-interpret- 

146147  0  0  0  0  0  0  0  0999 V2000
   55.3900  -35.5790   -8.4130 N   0  0  0  0  0
   54.8490  -34.3580   -7.7810 C   0  0  0  0  0
   54.3760  -34.6770   -6.4890 C   0  0  0  0  0
   54.0340  -35.8270   -6.1820 O   0  0  0  0  0
   53.6910  -33.7970   -8.6110 C   0  0  0  0  0
   54.2030  -33.2280   -9.9410 C   0  0  0  0  0
   54.4580  -31.7290   -9.7610 C   0  0  0  0  0
   54.4520  -31.0290  -11.0590 N   0  0  0  0  0
   55.4010  -30.1490  -11.4240 C   0  0  0  0  0
   55.3240  -29.5290  -12.6060 N   0  0  0  0  0
   56.4220  -29.8760  -10.5940 N   0  0  0  0  0
   54.2880  -33.6520   -5.5460 N   0  0  0  0  0
   53.8070  -33.8560   -4.1520 C   0  0  0  0  0
   52.4590  -34.2720   -4.1480 C   0  0  0  0  0
   52.0310  -35.0360   -3.2750 O   0  0  0  0  0
   54.0000  -32.5380   -3.3930 C   0  0  0  0  0
   53.4660  -32.6030   -1.9350 C   0  0  0  0  0
   54.1000  -31.4460   -1.1550 C   0  0  0  0  0
   53.4740  -31.1870    0.1580 N   0  0  0  0  0
   52.2880  -30.5710    0.3610 C   0  0  0  0  0
   51.8500  -30.3400    1.6240 N   0  0  0  0  0
   51.5490  -30.1790   -0.6880 N   0  0  0  0  0
   51.5920  -33.8400   -5.1720 N   0  0  0  0  0
   50.1630  -34.2610   -5.2500 C   0  0  0  0  0
   49.8920  -34.7150   -6.5560 C   0  0  0  0  0
   50.3950  -34.1570   -7.5310 O   0  0  0  0  0
   49.2140  -33.1120   -4.8700 C   0  0  0  0  0
   49.5290  -32.6030   -3.4470 C   0  0  0  0  0
   49.0220  -33.6070   -2.3890 C   0  0  0  0  0
   49.2950  -33.1520   -1.0090 N   0  0  0  0  0
   50.1730  -33.7370   -0.1600 C   0  0  0  0  0
   50.3080  -33.2870    1.1070 N   0  0  0  0  0
   50.9040  -34.7900   -0.5550 N   0  0  0  0  0
   49.0720  -35.8370   -6.7680 N   0  0  0  0  0
   48.7930  -36.3790   -8.1300 C   0  0  0  0  0
   47.4360  -36.2750   -8.4860 C   0  0  0  0  0
   46.5670  -36.3160   -7.6190 O   0  0  0  0  0
   49.0860  -37.8780   -8.0920 C   0  0  0  0  0
   50.5030  -38.1860   -7.6060 C   0  0  0  0  0
   51.4870  -38.1720   -8.7480 C   0  0  0  0  0
   52.6480  -39.1200   -8.4130 C   0  0  0  0  0
   53.6660  -38.5230   -7.5150 N   0  0  0  0  0
   47.1540  -36.1970   -9.8020 N   0  0  0  0  0
   45.7670  -36.2140  -10.3060 C   0  0  0  0  0
   45.1870  -37.5780   -9.9070 C   0  0  0  0  0
   45.8690  -38.5810  -10.0800 O   0  0  0  0  0
   45.6960  -36.0460  -11.8290 C   0  0  0  0  0
   46.2390  -34.6910  -12.3030 C   0  0  0  0  0
   46.5100  -34.8070  -13.8120 C   0  0  0  0  0
   46.9420  -33.5190  -14.3820 N   0  0  0  0  0
   48.2050  -33.0740  -14.2970 C   0  0  0  0  0
   48.5480  -31.8950  -14.8400 N   0  0  0  0  0
   49.1220  -33.8020  -13.6450 N   0  0  0  0  0
   43.9610  -37.6110   -9.3550 N   0  0  0  0  0
   43.3680  -38.8850   -8.8820 C   0  0  0  0  0
   43.4890  -38.9510   -7.4590 C   0  0  0  0  0
   42.4080  -38.6860   -6.6210 C   0  0  0  0  0
   42.5400  -38.7400   -5.2270 C   0  0  0  0  0
   43.7540  -39.0660   -4.6160 C   0  0  0  0  0
   43.8880  -39.1190   -3.2060 C   0  0  0  0  0
   45.0710  -39.4140   -2.6670 N   0  0  0  0  0
   42.8390  -38.8200   -2.4430 N   0  0  0  0  0
   44.8310  -39.3270   -5.4550 C   0  0  0  0  0
   44.7020  -39.2690   -6.8510 C   0  0  0  0  0
   56.5520  -36.1900   -7.9210 C   0  0  0  0  0
   56.9860  -37.3730   -8.5110 C   0  0  0  0  0
   57.2180  -38.4300   -7.4250 C   0  0  0  0  0
   55.9330  -38.6700   -6.6090 C   0  0  0  0  0
   54.9130  -39.1740   -7.4320 C   0  0  0  0  0
   57.1500  -35.6980   -6.9610 O   0  0  0  0  0
   55.0770  -40.2040   -8.0870 O   0  0  0  0  0
   54.9116  -35.9829   -9.2182 H   0  0  0  0  0
   55.6396  -33.6100   -7.7210 H   0  0  0  0  0
   53.2087  -32.9978   -8.0481 H   0  0  0  0  0
   52.9853  -34.6010   -8.8200 H   0  0  0  0  0
   53.4623  -33.3883  -10.7244 H   0  0  0  0  0
   55.1259  -33.7306  -10.2304 H   0  0  0  0  0
   55.4353  -31.5950   -9.2973 H   0  0  0  0  0
   53.6667  -31.3133   -9.1372 H   0  0  0  0  0
   53.6917  -31.2216  -11.7111 H   0  0  0  0  0
   54.5438  -29.7230  -13.2338 H   0  0  0  0  0
   57.1339  -29.1984  -10.8668 H   0  0  0  0  0
   56.4851  -30.3464   -9.6912 H   0  0  0  0  0
   54.5684  -32.7124   -5.8270 H   0  0  0  0  0
   54.3760  -34.6444   -3.6594 H   0  0  0  0  0
   53.4427  -31.7634   -3.9197 H   0  0  0  0  0
   55.0691  -32.3300   -3.3493 H   0  0  0  0  0
   53.7271  -33.5572   -1.4774 H   0  0  0  0  0
   52.3794  -32.5172   -1.9247 H   0  0  0  0  0
   53.9730  -30.5452   -1.7555 H   0  0  0  0  0
   55.1397  -31.7150   -0.9685 H   0  0  0  0  0
   53.9820  -31.5010    0.9849 H   0  0  0  0  0
   50.9586  -29.8682    1.7764 H   0  0  0  0  0
   52.4121  -30.6381    2.4212 H   0  0  0  0  0
   51.8823  -30.3459   -1.6375 H   0  0  0  0  0
   51.9569  -33.2135   -5.8895 H   0  0  0  0  0
   49.9938  -35.0664   -4.5352 H   0  0  0  0  0
   48.1868  -33.4756   -4.8979 H   0  0  0  0  0
   49.3462  -32.2934   -5.5775 H   0  0  0  0  0
   49.0301  -31.6459   -3.2947 H   0  0  0  0  0
   50.6082  -32.4920   -3.3414 H   0  0  0  0  0
   49.5421  -34.5525   -2.5429 H   0  0  0  0  0
   47.9428  -33.7057   -2.5057 H   0  0  0  0  0
   48.7838  -32.3365   -0.6712 H   0  0  0  0  0
   50.9575  -33.7469    1.7451 H   0  0  0  0  0
   49.7604  -32.4875    1.4253 H   0  0  0  0  0
   50.8009  -35.1562   -1.5014 H   0  0  0  0  0
   48.6521  -36.2978   -5.9607 H   0  0  0  0  0
   49.3997  -35.8157   -8.8389 H   0  0  0  0  0
   48.9866  -38.2658   -9.1058 H   0  0  0  0  0
   48.3845  -38.3401   -7.3974 H   0  0  0  0  0
   50.5078  -39.1784   -7.1551 H   0  0  0  0  0
   50.7966  -37.4233   -6.8848 H   0  0  0  0  0
   51.8667  -37.1610   -8.8959 H   0  0  0  0  0
   50.9948  -38.5001   -9.6636 H   0  0  0  0  0
   53.1461  -39.3687   -9.3501 H   0  0  0  0  0
   52.2256  -39.9829   -7.8982 H   0  0  0  0  0
   53.4717  -37.6767   -6.9799 H   0  0  0  0  0
   47.9221  -36.1241  -10.4692 H   0  0  0  0  0
   45.2073  -35.3808   -9.8811 H   0  0  0  0  0
   44.6483  -36.1076  -12.1234 H   0  0  0  0  0
   46.3076  -36.8273  -12.2802 H   0  0  0  0  0
   47.1548  -34.4382  -11.7686 H   0  0  0  0  0
   45.5167  -33.8992  -12.1042 H   0  0  0  0  0
   45.5878  -35.1121  -14.3065 H   0  0  0  0  0
   47.3047  -35.5371  -13.9655 H   0  0  0  0  0
   46.2518  -32.9411  -14.8616 H   0  0  0  0  0
   49.5057  -31.5542  -14.7561 H   0  0  0  0  0
   47.8509  -31.3401  -15.3365 H   0  0  0  0  0
   48.8583  -34.6893  -13.2166 H   0  0  0  0  0
   43.4303  -36.7451   -9.2602 H   0  0  0  0  0
   43.8914  -39.7264   -9.3360 H   0  0  0  0  0
   42.3164  -38.9298   -9.1652 H   0  0  0  0  0
   41.4421  -38.4321   -7.0576 H   0  0  0  0  0
   41.6733  -38.5221   -4.6029 H   0  0  0  0  0
   45.1840  -39.4132   -1.6533 H   0  0  0  0  0
   45.8632  -39.6405   -3.2683 H   0  0  0  0  0
   41.9530  -38.5569   -2.8745 H   0  0  0  0  0
   45.7968  -39.5823   -5.0190 H   0  0  0  0  0
   45.5712  -39.4776   -7.4747 H   0  0  0  0  0
   57.9178  -37.1916   -9.0466 H   0  0  0  0  0
   56.2292  -37.7297   -9.2097 H   0  0  0  0  0
   57.9997  -38.0765   -6.7526 H   0  0  0  0  0
   57.5102  -39.3653   -7.9025 H   0  0  0  0  0
   55.6052  -37.7235   -6.1791 H   0  0  0  0  0
   56.1436  -39.3950   -5.8228 H   0  0  0  0  0
  1  2  1  0  0  0
  1 65  1  0  0  0
  2  3  1  0  0  0
  2  5  1  0  0  0
  3  4  2  0  0  0
  3 12  1  0  0  0
  5  6  1  0  0  0
  6  7  1  0  0  0
  7  8  1  0  0  0
  8  9  1  0  0  0
  9 10  2  0  0  0
  9 11  1  0  0  0
 12 13  1  0  0  0
 13 14  1  0  0  0
 13 16  1  0  0  0
 14 15  2  0  0  0
 14 23  1  0  0  0
 16 17  1  0  0  0
 17 18  1  0  0  0
 18 19  1  0  0  0
 19 20  1  0  0  0
 20 21  1  0  0  0
 20 22  2  0  0  0
 23 24  1  0  0  0
 24 25  1  0  0  0
 24 27  1  0  0  0
 25 26  2  0  0  0
 25 34  1  0  0  0
 27 28  1  0  0  0
 28 29  1  0  0  0
 29 30  1  0  0  0
 30 31  1  0  0  0
 31 32  1  0  0  0
 31 33  2  0  0  0
 34 35  1  0  0  0
 35 36  1  0  0  0
 35 38  1  0  0  0
 36 37  2  0  0  0
 36 43  1  0  0  0
 38 39  1  0  0  0
 39 40  1  0  0  0
 40 41  1  0  0  0
 41 42  1  0  0  0
 42 69  1  0  0  0
 43 44  1  0  0  0
 44 45  1  0  0  0
 44 47  1  0  0  0
 45 46  2  0  0  0
 45 54  1  0  0  0
 47 48  1  0  0  0
 48 49  1  0  0  0
 49 50  1  0  0  0
 50 51  1  0  0  0
 51 52  1  0  0  0
 51 53  2  0  0  0
 54 55  1  0  0  0
 55 56  1  0  0  0
 56 57  4  0  0  0
 56 64  4  0  0  0
 57 58  4  0  0  0
 58 59  4  0  0  0
 59 60  1  0  0  0
 59 63  4  0  0  0
 60 61  1  0  0  0
 60 62  2  0  0  0
 63 64  4  0  0  0
 65 66  1  0  0  0
 65 70  2  0  0  0
 66 67  1  0  0  0
 67 68  1  0  0  0
 68 69  1  0  0  0
 69 71  2  0  0  0
  1 72  1  0  0  0
  2 73  1  0  0  0
  5 74  1  0  0  0
  5 75  1  0  0  0
  6 76  1  0  0  0
  6 77  1  0  0  0
  7 78  1  0  0  0
  7 79  1  0  0  0
  8 80  1  0  0  0
 10 81  1  0  0  0
 11 82  1  0  0  0
 11 83  1  0  0  0
 12 84  1  0  0  0
 13 85  1  0  0  0
 16 86  1  0  0  0
 16 87  1  0  0  0
 17 88  1  0  0  0
 17 89  1  0  0  0
 18 90  1  0  0  0
 18 91  1  0  0  0
 19 92  1  0  0  0
 21 93  1  0  0  0
 21 94  1  0  0  0
 22 95  1  0  0  0
 23 96  1  0  0  0
 24 97  1  0  0  0
 27 98  1  0  0  0
 27 99  1  0  0  0
 28100  1  0  0  0
 28101  1  0  0  0
 29102  1  0  0  0
 29103  1  0  0  0
 30104  1  0  0  0
 32105  1  0  0  0
 32106  1  0  0  0
 33107  1  0  0  0
 34108  1  0  0  0
 35109  1  0  0  0
 38110  1  0  0  0
 38111  1  0  0  0
 39112  1  0  0  0
 39113  1  0  0  0
 40114  1  0  0  0
 40115  1  0  0  0
 41116  1  0  0  0
 41117  1  0  0  0
 42118  1  0  0  0
 43119  1  0  0  0
 44120  1  0  0  0
 47121  1  0  0  0
 47122  1  0  0  0
 48123  1  0  0  0
 48124  1  0  0  0
 49125  1  0  0  0
 49126  1  0  0  0
 50127  1  0  0  0
 52128  1  0  0  0
 52129  1  0  0  0
 53130  1  0  0  0
 54131  1  0  0  0
 55132  1  0  0  0
 55133  1  0  0  0
 57134  1  0  0  0
 58135  1  0  0  0
 61136  1  0  0  0
 61137  1  0  0  0
 62138  1  0  0  0
 63139  1  0  0  0
 64140  1  0  0  0
 66141  1  0  0  0
 66142  1  0  0  0
 67143  1  0  0  0
 67144  1  0  0  0
 68145  1  0  0  0
 68146  1  0  0  0
M  END
$$$$
