4mh7_ligand
  -I-interpret- 

 62 63  0  0  0  0  0  0  0  0999 V2000
   12.9460   16.6330   20.2150 C   0  0  0  0  0
   13.1140   18.1280   20.3040 C   0  0  0  0  0
   13.0620   18.8060   18.9310 C   0  0  0  0  0
   14.2780   19.7490   18.7160 C   0  0  0  0  0
   14.2250   20.3330   17.3860 N   0  0  0  0  0
   14.9140   19.6650   16.2990 C   0  0  0  0  0
   16.0140   20.2190   15.7490 N   0  0  0  0  0
   16.6720   19.6000   14.7400 C   0  0  0  0  0
   16.2260   18.3570   14.2380 C   0  0  0  0  0
   16.8540   17.5260   13.1000 C   0  0  0  0  0
   16.2610   16.4890   12.8830 O   0  0  0  0  0
   18.0300   17.7870   12.2590 N   0  0  0  0  0
   18.9050   18.9470   12.3160 C   0  0  0  0  0
   18.4560   16.8110   11.2330 C   0  0  0  0  0
   19.7600   16.1450   11.7790 C   0  0  0  0  0
   20.9720   16.3160   10.8860 C   0  0  0  0  0
   22.2490   15.7450   11.5440 C   0  0  0  0  0
   15.0650   17.8160   14.8560 C   0  0  0  0  0
   14.4770   16.5320   14.4530 N   0  0  0  0  0
   13.3330   16.0450   15.1560 C   0  0  0  0  0
   13.8250   15.2570   16.3740 C   0  0  0  0  0
   12.6660   14.6350   17.1300 C   0  0  0  0  0
   11.7810   13.8060   16.2360 C   0  0  0  0  0
   10.6190   13.4410   16.9590 O   0  0  0  0  0
   11.3450   14.5570   14.9690 C   0  0  0  0  0
   12.5120   15.1860   14.2320 C   0  0  0  0  0
   14.4510   18.4840   15.8560 N   0  0  0  0  0
   11.9813   16.4034   19.7625 H   0  0  0  0  0
   13.7448   16.2147   19.6026 H   0  0  0  0  0
   12.9908   16.2034   21.2158 H   0  0  0  0  0
   14.0906   18.3315   20.7432 H   0  0  0  0  0
   12.2959   18.5235   20.9060 H   0  0  0  0  0
   12.1498   19.3998   18.8732 H   0  0  0  0  0
   13.0842   18.0330   18.1629 H   0  0  0  0  0
   15.1992   19.1756   18.8195 H   0  0  0  0  0
   14.2496   20.5460   19.4590 H   0  0  0  0  0
   13.7115   21.1986   17.2200 H   0  0  0  0  0
   17.5577   20.0672   14.3094 H   0  0  0  0  0
   18.3242   19.8486   12.1213 H   0  0  0  0  0
   19.3571   19.0112   13.3058 H   0  0  0  0  0
   19.6874   18.8477   11.5636 H   0  0  0  0  0
   18.6360   17.3006   10.2759 H   0  0  0  0  0
   17.6804   16.0666   11.0530 H   0  0  0  0  0
   19.5657   15.0750   11.8528 H   0  0  0  0  0
   19.9919   16.6274   12.7285 H   0  0  0  0  0
   21.1223   17.3811   10.7097 H   0  0  0  0  0
   20.7932   15.7765    9.9559 H   0  0  0  0  0
   22.4365   16.2660   12.4829 H   0  0  0  0  0
   22.1115   14.6813   11.7384 H   0  0  0  0  0
   23.0963   15.8865   10.8730 H   0  0  0  0  0
   14.8791   15.9966   13.6835 H   0  0  0  0  0
   12.6990   16.8631   15.4978 H   0  0  0  0  0
   14.3492   15.9405   17.0419 H   0  0  0  0  0
   14.4836   14.4597   16.0296 H   0  0  0  0  0
   12.0638   15.4409   17.5494 H   0  0  0  0  0
   13.0758   13.9820   17.9005 H   0  0  0  0  0
   12.3572   12.9346   15.9249 H   0  0  0  0  0
   10.0474   12.9118   16.3979 H   0  0  0  0  0
   10.6683   15.3568   15.2697 H   0  0  0  0  0
   10.8737   13.8381   14.2988 H   0  0  0  0  0
   13.1457   14.3917   13.8374 H   0  0  0  0  0
   12.1224   15.8102   13.4278 H   0  0  0  0  0
  1  2  1  0  0  0
  2  3  1  0  0  0
  3  4  1  0  0  0
  4  5  1  0  0  0
  5  6  1  0  0  0
  6  7  4  0  0  0
  6 27  4  0  0  0
  7  8  4  0  0  0
  8  9  4  0  0  0
  9 10  1  0  0  0
  9 18  4  0  0  0
 10 11  2  0  0  0
 10 12  1  0  0  0
 12 13  1  0  0  0
 12 14  1  0  0  0
 14 15  1  0  0  0
 15 16  1  0  0  0
 16 17  1  0  0  0
 18 19  1  0  0  0
 18 27  4  0  0  0
 19 20  1  0  0  0
 20 21  1  0  0  0
 20 26  1  0  0  0
 21 22  1  0  0  0
 22 23  1  0  0  0
 23 24  1  0  0  0
 23 25  1  0  0  0
 25 26  1  0  0  0
  1 28  1  0  0  0
  1 29  1  0  0  0
  1 30  1  0  0  0
  2 31  1  0  0  0
  2 32  1  0  0  0
  3 33  1  0  0  0
  3 34  1  0  0  0
  4 35  1  0  0  0
  4 36  1  0  0  0
  5 37  1  0  0  0
  8 38  1  0  0  0
 13 39  1  0  0  0
 13 40  1  0  0  0
 13 41  1  0  0  0
 14 42  1  0  0  0
 14 43  1  0  0  0
 15 44  1  0  0  0
 15 45  1  0  0  0
 16 46  1  0  0  0
 16 47  1  0  0  0
 17 48  1  0  0  0
 17 49  1  0  0  0
 17 50  1  0  0  0
 19 51  1  0  0  0
 20 52  1  0  0  0
 21 53  1  0  0  0
 21 54  1  0  0  0
 22 55  1  0  0  0
 22 56  1  0  0  0
 23 57  1  0  0  0
 24 58  1  0  0  0
 25 59  1  0  0  0
 25 60  1  0  0  0
 26 61  1  0  0  0
 26 62  1  0  0  0
M  END
$$$$
