5djp_ligand
  -I-interpret- 

 34 37  0  0  0  0  0  0  0  0999 V2000
    3.8620   73.8560   25.4830 C   0  0  0  0  0
    2.6430   74.2770   26.0530 C   0  0  0  0  0
    4.4430   72.6310   25.8040 C   0  0  0  0  0
    0.7330   75.5860   25.2150 C   0  0  0  0  0
    2.5910   72.1070   27.2410 C   0  0  0  0  0
    7.0910   73.7420   23.6300 C   0  0  0  0  0
    2.0030   78.0660   25.5980 C   0  0  0  0  0
    4.0120   76.9930   26.4590 C   0  0  0  0  0
    0.0520   76.7660   24.8870 C   0  0  0  0  0
    0.6950   78.0010   25.0660 C   0  0  0  0  0
    2.6150   79.3280   25.7840 C   0  0  0  0  0
    4.6220   78.2410   26.6230 C   0  0  0  0  0
    3.9100   79.4130   26.3190 C   0  0  0  0  0
    4.8650   74.4750   24.5380 C   0  0  0  0  0
    2.0450   75.6120   25.7290 C   0  0  0  0  0
    2.0150   73.3640   26.9370 C   0  0  0  0  0
    5.6090   72.5160   25.1420 N   0  0  0  0  0
    3.8280   71.7230   26.6810 C   0  0  0  0  0
    5.8530   73.5730   24.4070 C   0  0  0  0  0
    2.6990   76.8680   25.9390 C   0  0  0  0  0
    7.8480   74.8230   23.8500 O   0  0  0  0  0
    7.4260   72.8820   22.8360 O   0  0  0  0  0
    0.2368   74.6265   25.0693 H   0  0  0  0  0
    2.0721   71.4269   27.9165 H   0  0  0  0  0
    4.5603   76.0933   26.7382 H   0  0  0  0  0
   -0.9652   76.7254   24.4974 H   0  0  0  0  0
    0.1793   78.9212   24.7914 H   0  0  0  0  0
    2.0792   80.2371   25.5110 H   0  0  0  0  0
    5.6479   78.3039   26.9860 H   0  0  0  0  0
    4.3629   80.3881   26.4984 H   0  0  0  0  0
    4.8007   75.4526   24.0603 H   0  0  0  0  0
    1.0640   73.6368   27.3945 H   0  0  0  0  0
    4.2863   70.7631   26.9189 H   0  0  0  0  0
    7.4225   75.3826   24.5037 H   0  0  0  0  0
  1  2  4  0  0  0
  1  3  4  0  0  0
 14  1  4  0  0  0
  2 15  1  0  0  0
  2 16  4  0  0  0
  3 17  4  0  0  0
  3 18  4  0  0  0
  4  9  4  0  0  0
 15  4  4  0  0  0
 16  5  4  0  0  0
 18  5  4  0  0  0
 19  6  1  0  0  0
  6 21  1  0  0  0
  6 22  2  0  0  0
 10  7  4  0  0  0
  7 11  4  0  0  0
  7 20  4  0  0  0
  8 12  4  0  0  0
 20  8  4  0  0  0
  9 10  4  0  0  0
 11 13  4  0  0  0
 13 12  4  0  0  0
 14 19  4  0  0  0
 15 20  4  0  0  0
 17 19  4  0  0  0
  4 23  1  0  0  0
  5 24  1  0  0  0
  8 25  1  0  0  0
  9 26  1  0  0  0
 10 27  1  0  0  0
 11 28  1  0  0  0
 12 29  1  0  0  0
 13 30  1  0  0  0
 14 31  1  0  0  0
 16 32  1  0  0  0
 18 33  1  0  0  0
 21 34  1  0  0  0
M  END
$$$$
