6ap8_ligand
  -I-interpret- 

 32 33  0  0  0  0  0  0  0  0999 V2000
  -26.9280   14.9030  -20.8480 O   0  0  0  0  0
  -30.0640   14.7410  -18.7960 C   0  0  0  0  0
  -28.0430   15.7650  -16.8070 C   0  0  0  0  0
  -27.0140   16.0510  -15.9450 C   0  0  0  0  0
  -25.7100   16.0570  -16.3960 C   0  0  0  0  0
  -25.4410   15.8050  -17.7160 C   0  0  0  0  0
  -31.7800   13.7120  -17.4630 C   0  0  0  0  0
  -32.2840   14.7770  -19.6090 C   0  0  0  0  0
  -34.5150   15.5060  -20.3780 O   0  0  0  0  0
  -33.2330   15.1290  -20.6130 N   0  0  0  0  0
  -32.8840   14.8930  -21.9290 O   0  0  0  0  0
  -30.9810   15.1280  -19.7420 C   0  0  0  0  0
  -30.4560   15.8800  -20.9480 C   0  0  0  0  0
  -32.6680   14.0860  -18.4670 C   0  0  0  0  0
  -30.4490   14.0170  -17.6900 C   0  0  0  0  0
  -28.7650   15.0940  -18.9860 N   0  0  0  0  0
  -27.7680   15.4330  -18.1230 C   0  0  0  0  0
  -26.4570   15.4680  -18.6020 C   0  0  0  0  0
  -26.0870   15.1080  -19.9820 C   0  0  0  0  0
  -24.8280   14.9080  -20.2510 O   0  0  0  0  0
  -29.0745   15.7991  -16.4565 H   0  0  0  0  0
  -27.2278   16.2743  -14.8998 H   0  0  0  0  0
  -24.8942   16.2621  -15.7028 H   0  0  0  0  0
  -24.4143   15.8699  -18.0764 H   0  0  0  0  0
  -32.1119   13.2100  -16.5542 H   0  0  0  0  0
  -29.9709   16.7989  -20.6187 H   0  0  0  0  0
  -29.7354   15.2569  -21.4777 H   0  0  0  0  0
  -31.2853   16.1234  -21.6121 H   0  0  0  0  0
  -33.7194   13.8230  -18.3512 H   0  0  0  0  0
  -29.6932   13.6784  -16.9814 H   0  0  0  0  0
  -28.4822   15.1075  -19.9659 H   0  0  0  0  0
  -24.3000   15.1117  -19.4756 H   0  0  0  0  0
 19  1  2  0  0  0
  2 12  4  0  0  0
  2 15  4  0  0  0
 16  2  1  0  0  0
  3  4  4  0  0  0
 17  3  4  0  0  0
  5  4  4  0  0  0
  6  5  4  0  0  0
 18  6  4  0  0  0
  7 14  4  0  0  0
 15  7  4  0  0  0
  8 10  1  0  0  0
 12  8  4  0  0  0
  8 14  4  0  0  0
 10  9  2  0  0  0
 10 11  2  0  0  0
 12 13  1  0  0  0
 17 16  1  0  0  0
 18 17  4  0  0  0
 18 19  1  0  0  0
 19 20  1  0  0  0
  3 21  1  0  0  0
  4 22  1  0  0  0
  5 23  1  0  0  0
  6 24  1  0  0  0
  7 25  1  0  0  0
 13 26  1  0  0  0
 13 27  1  0  0  0
 13 28  1  0  0  0
 14 29  1  0  0  0
 15 30  1  0  0  0
 16 31  1  0  0  0
 20 32  1  0  0  0
M  END
$$$$
