3hd3_ligand
  -I-interpret- 

 68 70  0  0  0  0  0  0  0  0999 V2000
   11.8830    9.8610   -1.1400 O   0  0  0  0  0
   11.8640   10.0990   -2.5040 S   0  0  0  0  0
   12.6370   11.2050   -3.0040 O   0  0  0  0  0
   10.2770   10.4000   -2.9020 C   0  0  0  0  0
    9.7730   11.6850   -3.0470 C   0  0  0  0  0
    8.4080   11.9150   -3.3560 C   0  0  0  0  0
    7.5130   10.8540   -3.5240 C   0  0  0  0  0
    8.0060    9.5920   -3.3830 C   0  0  0  0  0
    9.3510    9.3850   -3.0340 C   0  0  0  0  0
   12.2800    8.6390   -3.2920 C   0  0  0  0  0
   13.7760    8.4370   -3.4830 C   0  0  0  0  0
   14.2770    8.5070   -4.9360 C   0  0  0  0  0
   13.8030    9.7730   -5.7090 C   0  0  0  0  0
   14.5880    9.8870   -7.0000 C   0  0  0  0  0
   14.2070   11.0790   -7.9180 C   0  0  0  0  0
   14.0810   12.3430   -7.1400 C   0  0  0  0  0
   13.8070    7.2450   -5.5640 N   0  0  0  0  0
   14.5920    6.2590   -6.0350 C   0  0  0  0  0
   15.8950    6.3690   -6.0580 O   0  0  0  0  0
   13.9520    4.9830   -6.5790 C   0  0  0  0  0
   14.0920    3.8990   -5.4990 C   0  0  0  0  0
   13.5000    2.5650   -5.9530 C   0  0  0  0  0
   13.9850    2.1510   -7.3280 C   0  0  0  0  0
   13.8590    3.2590   -8.3500 C   0  0  0  0  0
   14.5860    4.5670   -7.8820 C   0  0  0  0  0
   14.5000    5.6630   -8.8880 C   0  0  0  0  0
   13.4190    6.3100   -9.0420 O   0  0  0  0  0
   15.7190    6.0180   -9.6900 C   0  0  0  0  0
   16.8360    5.1640   -9.7890 C   0  0  0  0  0
   15.7050    7.2060  -10.3630 C   0  0  0  0  0
   16.8140    7.5530  -11.1340 C   0  0  0  0  0
   17.8720    6.7070  -11.2250 C   0  0  0  0  0
   19.2520    7.2880  -12.1850 Cl  0  0  0  0  0
   17.9290    5.5080  -10.5660 C   0  0  0  0  0
   10.4413   12.5367   -2.9205 H   0  0  0  0  0
    8.0498   12.9387   -3.4646 H   0  0  0  0  0
    6.4631   11.0296   -3.7584 H   0  0  0  0  0
    7.3512    8.7353   -3.5423 H   0  0  0  0  0
    9.6830    8.3620   -2.8569 H   0  0  0  0  0
   11.8306    8.6701   -4.2845 H   0  0  0  0  0
   11.9229    7.8222   -2.6648 H   0  0  0  0  0
   14.0002    7.4316   -3.1267 H   0  0  0  0  0
   14.2685    9.2481   -2.9467 H   0  0  0  0  0
   15.3626    8.6009   -4.9651 H   0  0  0  0  0
   13.9702   10.6601   -5.0981 H   0  0  0  0  0
   12.7393    9.6900   -5.9322 H   0  0  0  0  0
   14.3790    8.9809   -7.5688 H   0  0  0  0  0
   15.6293   10.0379   -6.7152 H   0  0  0  0  0
   13.2469   10.8629   -8.3865 H   0  0  0  0  0
   14.9918   11.2073   -8.6635 H   0  0  0  0  0
   13.3058   12.2263   -6.3827 H   0  0  0  0  0
   15.0320   12.5670   -6.6567 H   0  0  0  0  0
   13.8134   13.1574   -7.8132 H   0  0  0  0  0
   12.7987    7.1145   -5.6453 H   0  0  0  0  0
   12.8975    5.1486   -6.7996 H   0  0  0  0  0
   13.5525    4.2286   -4.6111 H   0  0  0  0  0
   15.1530    3.7518   -5.2971 H   0  0  0  0  0
   12.4167    2.6766   -5.9986 H   0  0  0  0  0
   13.8123    1.7998   -5.2423 H   0  0  0  0  0
   13.3695    1.3159   -7.6624 H   0  0  0  0  0
   15.0401    1.8900   -7.2460 H   0  0  0  0  0
   12.8008    3.4838   -8.4834 H   0  0  0  0  0
   14.3210    2.9233   -9.2784 H   0  0  0  0  0
   15.6503    4.3668   -7.7585 H   0  0  0  0  0
   16.8393    4.2190   -9.2459 H   0  0  0  0  0
   14.8434    7.8705  -10.2988 H   0  0  0  0  0
   16.8315    8.5050  -11.6645 H   0  0  0  0  0
   18.7965    4.8534  -10.6495 H   0  0  0  0  0
  1  2  2  0  0  0
  2  3  2  0  0  0
  2  4  1  0  0  0
  2 10  1  0  0  0
  4  5  4  0  0  0
  4  9  4  0  0  0
  5  6  4  0  0  0
  6  7  4  0  0  0
  7  8  4  0  0  0
  8  9  4  0  0  0
 10 11  1  0  0  0
 11 12  1  0  0  0
 12 13  1  0  0  0
 12 17  1  0  0  0
 13 14  1  0  0  0
 14 15  1  0  0  0
 15 16  1  0  0  0
 17 18  1  0  0  0
 18 19  2  0  0  0
 18 20  1  0  0  0
 20 21  1  0  0  0
 20 25  1  0  0  0
 21 22  1  0  0  0
 22 23  1  0  0  0
 23 24  1  0  0  0
 24 25  1  0  0  0
 25 26  1  0  0  0
 26 27  2  0  0  0
 26 28  1  0  0  0
 28 29  4  0  0  0
 28 30  4  0  0  0
 29 34  4  0  0  0
 30 31  4  0  0  0
 31 32  4  0  0  0
 32 33  1  0  0  0
 32 34  4  0  0  0
  5 35  1  0  0  0
  6 36  1  0  0  0
  7 37  1  0  0  0
  8 38  1  0  0  0
  9 39  1  0  0  0
 10 40  1  0  0  0
 10 41  1  0  0  0
 11 42  1  0  0  0
 11 43  1  0  0  0
 12 44  1  0  0  0
 13 45  1  0  0  0
 13 46  1  0  0  0
 14 47  1  0  0  0
 14 48  1  0  0  0
 15 49  1  0  0  0
 15 50  1  0  0  0
 16 51  1  0  0  0
 16 52  1  0  0  0
 16 53  1  0  0  0
 17 54  1  0  0  0
 20 55  1  0  0  0
 21 56  1  0  0  0
 21 57  1  0  0  0
 22 58  1  0  0  0
 22 59  1  0  0  0
 23 60  1  0  0  0
 23 61  1  0  0  0
 24 62  1  0  0  0
 24 63  1  0  0  0
 25 64  1  0  0  0
 29 65  1  0  0  0
 30 66  1  0  0  0
 31 67  1  0  0  0
 34 68  1  0  0  0
M  END
$$$$
