5llh_ligand
  -I-interpret- 

 30 32  0  0  0  0  0  0  0  0999 V2000
   -3.9720    0.3420   14.5320 F   0  0  0  0  0
   -4.5520    1.5610   14.5780 C   0  0  0  0  0
   -5.4120    1.9740   15.6070 C   0  0  0  0  0
   -5.8750    0.8720   16.9330 S   0  0  0  0  0
   -5.3500    1.2100   18.2990 O   0  0  0  0  0
   -5.3450   -0.7700   16.5680 N   0  0  0  0  0
   -7.4150    1.0000   16.9110 O   0  0  0  0  0
   -6.0120    3.2360   15.5550 C   0  0  0  0  0
   -6.8360    3.6590   16.5360 F   0  0  0  0  0
   -5.7050    4.1070   14.5280 C   0  0  0  0  0
   -6.2570    5.3250   14.5850 F   0  0  0  0  0
   -4.2590    2.4780   13.5570 C   0  0  0  0  0
   -3.4590    2.1430   12.5610 F   0  0  0  0  0
   -4.8400    3.7220   13.5050 C   0  0  0  0  0
   -4.3280    4.7180   12.0640 S   0  0  0  0  0
   -3.3410    5.9240   12.8670 C   0  0  0  0  0
   -2.8750    6.9690   12.1350 N   0  0  0  0  0
   -2.1460    7.7830   12.9490 C   0  0  0  0  0
   -1.5890    8.9720   12.4780 C   0  0  0  0  0
   -0.8440    9.7450   13.4170 C   0  0  0  0  0
   -0.7110    9.3070   14.7810 C   0  0  0  0  0
   -1.3270    8.1230   15.2240 C   0  0  0  0  0
   -2.0440    7.3780   14.3010 C   0  0  0  0  0
   -2.8580    5.9380   14.4720 S   0  0  0  0  0
   -4.7876   -1.2887   17.2467 H   0  0  0  0  0
   -5.5959   -1.2010   15.6782 H   0  0  0  0  0
   -1.7167    9.2941   11.4445 H   0  0  0  0  0
   -0.3719   10.6745   13.0989 H   0  0  0  0  0
   -0.1242    9.9016   15.4812 H   0  0  0  0  0
   -1.2431    7.8009   16.2619 H   0  0  0  0  0
  1  2  1  0  0  0
  2  3  4  0  0  0
  2 12  4  0  0  0
  3  4  1  0  0  0
  3  8  4  0  0  0
  4  5  2  0  0  0
  4  6  1  0  0  0
  4  7  2  0  0  0
  8  9  1  0  0  0
  8 10  4  0  0  0
 10 11  1  0  0  0
 10 14  4  0  0  0
 12 13  1  0  0  0
 12 14  4  0  0  0
 14 15  1  0  0  0
 15 16  1  0  0  0
 16 17  4  0  0  0
 16 24  4  0  0  0
 17 18  4  0  0  0
 18 19  4  0  0  0
 18 23  4  0  0  0
 19 20  4  0  0  0
 20 21  4  0  0  0
 21 22  4  0  0  0
 22 23  4  0  0  0
 23 24  4  0  0  0
  6 25  1  0  0  0
  6 26  1  0  0  0
 19 27  1  0  0  0
 20 28  1  0  0  0
 21 29  1  0  0  0
 22 30  1  0  0  0
M  END
$$$$
