1u9e_ligand
  -I-interpret- 

 27 29  0  0  0  0  0  0  0  0999 V2000
   32.1100   36.9260   35.3650 C   0  0  0  0  0
   30.7430   37.0510   35.7400 C   0  0  0  0  0
   30.3120   36.6340   37.0060 C   0  0  0  0  0
   31.2720   36.0610   37.9350 C   0  0  0  0  0
   32.6150   35.9410   37.5620 C   0  0  0  0  0
   33.0410   36.3680   36.2770 C   0  0  0  0  0
   29.0750   36.6560   37.5800 O   0  0  0  0  0
   29.2140   36.1310   38.8260 C   0  0  0  0  0
   30.5640   35.7210   39.1540 C   0  0  0  0  0
   28.0660   36.0510   39.6530 C   0  0  0  0  0
   26.7520   36.4000   39.1600 C   0  0  0  0  0
   25.5980   36.3370   39.9750 C   0  0  0  0  0
   25.7070   35.9250   41.3200 C   0  0  0  0  0
   26.9710   35.5720   41.8530 C   0  0  0  0  0
   28.1220   35.6360   41.0390 C   0  0  0  0  0
   34.3640   36.2420   35.9250 O   0  0  0  0  0
   24.5770   35.8710   42.0960 O   0  0  0  0  0
   32.4400   37.2579   34.3806 H   0  0  0  0  0
   30.0258   37.4744   35.0368 H   0  0  0  0  0
   33.3369   35.5181   38.2606 H   0  0  0  0  0
   30.9460   35.2755   40.0725 H   0  0  0  0  0
   26.6474   36.7228   38.1242 H   0  0  0  0  0
   24.6250   36.6066   39.5644 H   0  0  0  0  0
   27.0546   35.2511   42.8913 H   0  0  0  0  0
   29.0862   35.3637   41.4684 H   0  0  0  0  0
   34.8515   35.8487   36.6525 H   0  0  0  0  0
   24.8104   35.5756   42.9791 H   0  0  0  0  0
  1  2  4  0  0  0
  1  6  4  0  0  0
  2  3  4  0  0  0
  3  4  4  0  0  0
  3  7  4  0  0  0
  4  5  4  0  0  0
  4  9  4  0  0  0
  5  6  4  0  0  0
  6 16  1  0  0  0
  7  8  4  0  0  0
  8  9  4  0  0  0
  8 10  1  0  0  0
 10 11  4  0  0  0
 10 15  4  0  0  0
 11 12  4  0  0  0
 12 13  4  0  0  0
 13 14  4  0  0  0
 13 17  1  0  0  0
 14 15  4  0  0  0
  1 18  1  0  0  0
  2 19  1  0  0  0
  5 20  1  0  0  0
  9 21  1  0  0  0
 11 22  1  0  0  0
 12 23  1  0  0  0
 14 24  1  0  0  0
 15 25  1  0  0  0
 16 26  1  0  0  0
 17 27  1  0  0  0
M  END
$$$$
