1c3e_ligand
  -I-interpret- 

 57 59  0  0  0  0  0  0  0  0999 V2000
   22.3420    1.3780   22.7850 N   0  0  0  0  0
   23.3440    1.7360   22.0220 C   0  0  0  0  0
   24.5300    1.0800   22.1240 N   0  0  0  0  0
   23.2170    2.8230   21.0530 N   0  0  0  0  0
   22.0500    3.5340   20.8930 C   0  0  0  0  0
   22.0170    4.4390   20.0610 O   0  0  0  0  0
   20.8520    3.1520   21.7670 C   0  0  0  0  0
   21.0480    2.0520   22.7090 C   0  0  0  0  0
   19.9770    1.6480   23.5320 C   0  0  0  0  0
   18.7440    2.3200   23.4570 C   0  0  0  0  0
   17.2450    4.1620   22.5490 C   0  0  0  0  0
   17.3890    5.7150   22.9720 C   0  0  0  0  0
   16.2410    6.6090   22.5320 C   0  0  0  0  0
   16.2870    6.9380   21.3410 O   0  0  0  0  0
   18.5610    3.4000   22.5570 C   0  0  0  0  0
   19.6130    3.8110   21.7110 C   0  0  0  0  0
   18.3750    5.0170   26.7230 C   0  0  0  0  0
   18.9380    6.2320   27.1740 C   0  0  0  0  0
   19.5100    6.3100   28.6050 C   0  0  0  0  0
   20.1750    7.2940   28.9810 O   0  0  0  0  0
   18.9910    7.3270   26.2420 C   0  0  0  0  0
   18.4800    7.1920   24.9160 C   0  0  0  0  0
   17.9220    5.9320   24.4800 C   0  0  0  0  0
   17.8670    4.8710   25.4280 C   0  0  0  0  0
   19.2860    5.2610   29.4670 N   0  0  0  0  0
   19.7220    5.0840   30.8870 C   0  0  0  0  0
   18.9890    5.8600   32.0650 C   0  0  0  0  0
   18.4910    5.2830   33.0680 O   0  0  0  0  0
   21.2750    5.2520   31.0000 C   0  0  0  0  0
   22.1950    4.0120   31.3310 C   0  0  0  0  0
   21.4570    2.6750   31.3500 C   0  0  0  0  0
   20.9130    2.1760   30.3660 O   0  0  0  0  0
   21.5060    2.0640   32.5790 O   0  0  0  0  0
   18.9310    7.2150   31.9110 O   0  0  0  0  0
   15.8190    7.4850   23.2710 O   0  0  0  0  0
   24.6342    0.3154   22.7911 H   0  0  0  0  0
   25.3159    1.3523   21.5335 H   0  0  0  0  0
   24.0223    3.0630   20.4748 H   0  0  0  0  0
   20.1044    0.8164   24.2251 H   0  0  0  0  0
   17.9198    2.0070   24.0980 H   0  0  0  0  0
   16.8607    4.1368   21.5293 H   0  0  0  0  0
   16.5889    3.6858   23.2776 H   0  0  0  0  0
   18.2082    6.0950   22.3616 H   0  0  0  0  0
   16.6261    6.2059   20.8208 H   0  0  0  0  0
   19.4644    4.6375   21.0161 H   0  0  0  0  0
   18.3354    4.1677   27.4050 H   0  0  0  0  0
   19.4286    8.2754   26.5537 H   0  0  0  0  0
   18.5106    8.0399   24.2317 H   0  0  0  0  0
   17.4178    3.9214   25.1373 H   0  0  0  0  0
   18.7420    4.4897   29.0803 H   0  0  0  0  0
   19.3813    4.0669   31.0809 H   0  0  0  0  0
   21.4109    5.9207   31.8500 H   0  0  0  0  0
   21.5849    5.5561   30.0002 H   0  0  0  0  0
   22.6018    4.1699   32.3299 H   0  0  0  0  0
   22.9500    3.9524   30.5471 H   0  0  0  0  0
   21.9759    2.6284   33.1972 H   0  0  0  0  0
   19.3628    7.4614   31.0897 H   0  0  0  0  0
  1  2  2  0  0  0
  8  1  1  0  0  0
  2  3  1  0  0  0
  4  2  1  0  0  0
  5  4  1  0  0  0
  5  6  2  0  0  0
  7  5  1  0  0  0
  7  8  4  0  0  0
 16  7  4  0  0  0
  9  8  4  0  0  0
 10  9  4  0  0  0
 15 10  4  0  0  0
 12 11  1  0  0  0
 11 15  1  0  0  0
 12 13  1  0  0  0
 23 12  1  0  0  0
 13 14  1  0  0  0
 13 35  2  0  0  0
 15 16  4  0  0  0
 18 17  4  0  0  0
 17 24  4  0  0  0
 18 19  1  0  0  0
 21 18  4  0  0  0
 19 20  2  0  0  0
 19 25  1  0  0  0
 22 21  4  0  0  0
 22 23  4  0  0  0
 23 24  4  0  0  0
 25 26  1  0  0  0
 26 27  1  0  0  0
 26 29  1  0  0  0
 27 28  2  0  0  0
 27 34  1  0  0  0
 29 30  1  0  0  0
 30 31  1  0  0  0
 31 32  2  0  0  0
 31 33  1  0  0  0
  3 36  1  0  0  0
  3 37  1  0  0  0
  4 38  1  0  0  0
  9 39  1  0  0  0
 10 40  1  0  0  0
 11 41  1  0  0  0
 11 42  1  0  0  0
 12 43  1  0  0  0
 14 44  1  0  0  0
 16 45  1  0  0  0
 17 46  1  0  0  0
 21 47  1  0  0  0
 22 48  1  0  0  0
 24 49  1  0  0  0
 25 50  1  0  0  0
 26 51  1  0  0  0
 29 52  1  0  0  0
 29 53  1  0  0  0
 30 54  1  0  0  0
 30 55  1  0  0  0
 33 56  1  0  0  0
 34 57  1  0  0  0
M  END
$$$$
