5urk_ligand
  -I-interpret- 

 56 60  0  0  0  0  0  0  0  0999 V2000
  238.1220    9.1390  158.6190 N   0  0  0  0  0
  241.8740   10.2890  159.7650 N   0  0  0  0  0
  242.5530   14.3180  159.2020 C   0  0  0  0  0
  232.1430   16.0620  163.8020 C   0  0  0  0  0
  234.1870   17.2280  163.4050 C   0  0  0  0  0
  234.3420    8.9250  162.6430 C   0  0  0  0  0
  244.6610   12.5730  159.3470 C   0  0  0  0  0
  232.7580   14.8680  163.4930 C   0  0  0  0  0
  233.8630   10.1390  163.0680 C   0  0  0  0  0
  243.4070   12.1300  159.6920 C   0  0  0  0  0
  236.0300   10.0570  161.4280 C   0  0  0  0  0
  240.8270   10.3470  160.6440 C   0  0  0  0  0
  239.6040    9.9760  160.2720 C   0  0  0  0  0
  239.3890    9.5080  158.9470 C   0  0  0  0  0
  236.9780    9.4500  159.3060 C   0  0  0  0  0
  243.1890   10.7160  160.1500 C   0  0  0  0  0
  243.8120   14.7520  158.8640 C   0  0  0  0  0
  232.8590   17.2380  163.7560 C   0  0  0  0  0
  244.8620   13.8710  158.9380 C   0  0  0  0  0
  242.3600   13.0190  159.6100 C   0  0  0  0  0
  234.7870   16.0280  163.1020 C   0  0  0  0  0
  235.4310    8.8810  161.8130 C   0  0  0  0  0
  235.5610   11.2810  161.8490 C   0  0  0  0  0
  234.0860   14.8420  163.1410 C   0  0  0  0  0
  234.4670   11.3090  162.6800 C   0  0  0  0  0
  240.4000    9.4380  158.0810 C   0  0  0  0  0
  241.7540    9.8480  158.4850 C   0  0  0  0  0
  238.4370   10.0240  161.1780 C   0  0  0  0  0
  234.7620   13.5520  162.7980 C   0  0  0  0  0
  237.1220    9.9360  160.5750 N   0  0  0  0  0
  242.7040    9.7950  157.7240 O   0  0  0  0  0
  235.8600    9.2920  158.8280 O   0  0  0  0  0
  233.9110   12.4830  163.1580 O   0  0  0  0  0
  241.7072   15.0033  159.1468 H   0  0  0  0  0
  231.0899   16.0758  164.0828 H   0  0  0  0  0
  234.7565   18.1566  163.3672 H   0  0  0  0  0
  233.8591    8.0020  162.9638 H   0  0  0  0  0
  245.5070   11.8876  159.3980 H   0  0  0  0  0
  232.1881   13.9395  163.5280 H   0  0  0  0  0
  232.9918   10.1745  163.7220 H   0  0  0  0  0
  240.9964   10.7012  161.6608 H   0  0  0  0  0
  243.9327   10.0652  159.6902 H   0  0  0  0  0
  243.2858   10.6651  161.2345 H   0  0  0  0  0
  243.9746   15.7805  158.5419 H   0  0  0  0  0
  232.3694   18.1810  163.9993 H   0  0  0  0  0
  245.8650   14.2031  158.6700 H   0  0  0  0  0
  241.3561   12.6865  159.8741 H   0  0  0  0  0
  235.8410   16.0147  162.8247 H   0  0  0  0  0
  235.8181    7.9245  161.4619 H   0  0  0  0  0
  236.0452   12.2044  161.5312 H   0  0  0  0  0
  240.1293   10.1406  157.2928 H   0  0  0  0  0
  240.4943    8.3745  157.8617 H   0  0  0  0  0
  238.4764   11.0020  161.6577 H   0  0  0  0  0
  238.5261    9.1476  161.8199 H   0  0  0  0  0
  235.7044   13.4730  163.3401 H   0  0  0  0  0
  234.9686   13.5159  161.7284 H   0  0  0  0  0
  1 14  2  0  0  0
 15  1  1  0  0  0
 12  2  1  0  0  0
  2 16  1  0  0  0
  2 27  1  0  0  0
  3 17  4  0  0  0
 20  3  4  0  0  0
  8  4  4  0  0  0
  4 18  4  0  0  0
  5 18  4  0  0  0
 21  5  4  0  0  0
  9  6  4  0  0  0
  6 22  4  0  0  0
 10  7  4  0  0  0
  7 19  4  0  0  0
 24  8  4  0  0  0
 25  9  4  0  0  0
 16 10  1  0  0  0
 10 20  4  0  0  0
 11 22  4  0  0  0
 23 11  4  0  0  0
 11 30  1  0  0  0
 13 12  2  0  0  0
 13 14  1  0  0  0
 28 13  1  0  0  0
 14 26  1  0  0  0
 30 15  1  0  0  0
 15 32  2  0  0  0
 19 17  4  0  0  0
 24 21  4  0  0  0
 25 23  4  0  0  0
 29 24  1  0  0  0
 33 25  1  0  0  0
 26 27  1  0  0  0
 27 31  2  0  0  0
 30 28  1  0  0  0
 29 33  1  0  0  0
  3 34  1  0  0  0
  4 35  1  0  0  0
  5 36  1  0  0  0
  6 37  1  0  0  0
  7 38  1  0  0  0
  8 39  1  0  0  0
  9 40  1  0  0  0
 12 41  1  0  0  0
 16 42  1  0  0  0
 16 43  1  0  0  0
 17 44  1  0  0  0
 18 45  1  0  0  0
 19 46  1  0  0  0
 20 47  1  0  0  0
 21 48  1  0  0  0
 22 49  1  0  0  0
 23 50  1  0  0  0
 26 51  1  0  0  0
 26 52  1  0  0  0
 28 53  1  0  0  0
 28 54  1  0  0  0
 29 55  1  0  0  0
 29 56  1  0  0  0
M  END
$$$$
