4jt8_ligand
  -I-interpret- 

 54 56  0  0  0  0  0  0  0  0999 V2000
   24.3620   48.1330  -15.7750 C   0  0  0  0  0
   23.4820   47.2480  -14.9290 C   0  0  0  0  0
   22.9140   48.0810  -13.7810 C   0  0  0  0  0
   22.3370   46.7530  -15.7980 C   0  0  0  0  0
   24.3160   46.0840  -14.3640 C   0  0  0  0  0
   24.9770   46.2380  -13.3400 O   0  0  0  0  0
   24.2820   44.9270  -15.0450 N   0  0  0  0  0
   25.0530   43.7440  -14.6150 C   0  0  0  0  0
   24.1740   42.7190  -13.8550 C   0  0  0  0  0
   23.7290   43.2310  -12.4550 C   0  0  0  0  0
   22.6360   42.2990  -11.9010 C   0  0  0  0  0
   22.2080   42.7150  -10.4790 C   0  0  0  0  0
   24.9320   43.3580  -11.4740 C   0  0  0  0  0
   24.4530   43.7810  -10.0640 C   0  0  0  0  0
   23.4000   42.8280   -9.5890 N   0  0  0  0  0
   23.5590   42.1400   -8.4180 C   0  0  0  0  0
   24.4270   42.6770   -7.5330 N   0  0  0  0  0
   24.6810   42.0730   -6.3110 C   0  0  0  0  0
   24.0030   40.8880   -6.0390 N   0  0  0  0  0
   23.1320   40.3560   -6.9220 C   0  0  0  0  0
   22.4150   39.2150   -6.7630 C   0  0  0  0  0
   22.9170   40.9870   -8.1060 C   0  0  0  0  0
   21.7900   40.0240   -8.9220 S   0  0  0  0  0
   21.6170   38.8980   -7.7880 C   0  0  0  0  0
   20.7890   37.8470   -7.8850 C   0  0  0  0  0
   20.2420   37.5980   -8.9550 O   0  0  0  0  0
   20.5200   37.1670   -6.7650 N   0  0  0  0  0
   25.1721   48.5294  -15.1629 H   0  0  0  0  0
   24.7777   47.5505  -16.5972 H   0  0  0  0  0
   23.7701   48.9566  -16.1743 H   0  0  0  0  0
   22.2799   47.4518  -13.1563 H   0  0  0  0  0
   23.7335   48.4802  -13.1833 H   0  0  0  0  0
   22.3248   48.9032  -14.1872 H   0  0  0  0  0
   22.7385   46.1813  -16.6347 H   0  0  0  0  0
   21.6802   46.1175  -15.2040 H   0  0  0  0  0
   21.7743   47.6065  -16.1762 H   0  0  0  0  0
   23.7061   44.8638  -15.8845 H   0  0  0  0  0
   25.8425   44.0792  -13.9423 H   0  0  0  0  0
   25.4512   43.2563  -15.5048 H   0  0  0  0  0
   24.7650   41.8150  -13.7084 H   0  0  0  0  0
   23.2764   42.5432  -14.4479 H   0  0  0  0  0
   23.3187   44.2353  -12.5607 H   0  0  0  0  0
   23.0344   41.2853  -11.8595 H   0  0  0  0  0
   21.7663   42.3589  -12.5553 H   0  0  0  0  0
   21.5343   41.9590  -10.0757 H   0  0  0  0  0
   21.7083   43.6825  -10.5275 H   0  0  0  0  0
   25.6156   44.1171  -11.8542 H   0  0  0  0  0
   25.4276   42.3900  -11.4000 H   0  0  0  0  0
   24.0390   44.7884  -10.1075 H   0  0  0  0  0
   25.2962   43.7651   -9.3734 H   0  0  0  0  0
   25.3800   42.5065   -5.5957 H   0  0  0  0  0
   22.4845   38.6014   -5.8648 H   0  0  0  0  0
   19.8375   36.4092   -6.7800 H   0  0  0  0  0
   20.9974   37.4063   -5.8960 H   0  0  0  0  0
  1  2  1  0  0  0
  2  3  1  0  0  0
  2  4  1  0  0  0
  2  5  1  0  0  0
  5  6  2  0  0  0
  5  7  1  0  0  0
  7  8  1  0  0  0
  8  9  1  0  0  0
  9 10  1  0  0  0
 10 11  1  0  0  0
 10 13  1  0  0  0
 11 12  1  0  0  0
 12 15  1  0  0  0
 13 14  1  0  0  0
 14 15  1  0  0  0
 15 16  1  0  0  0
 16 17  4  0  0  0
 16 22  4  0  0  0
 17 18  4  0  0  0
 18 19  4  0  0  0
 19 20  4  0  0  0
 20 21  4  0  0  0
 20 22  4  0  0  0
 21 24  4  0  0  0
 22 23  4  0  0  0
 23 24  4  0  0  0
 24 25  1  0  0  0
 25 26  2  0  0  0
 25 27  1  0  0  0
  1 28  1  0  0  0
  1 29  1  0  0  0
  1 30  1  0  0  0
  3 31  1  0  0  0
  3 32  1  0  0  0
  3 33  1  0  0  0
  4 34  1  0  0  0
  4 35  1  0  0  0
  4 36  1  0  0  0
  7 37  1  0  0  0
  8 38  1  0  0  0
  8 39  1  0  0  0
  9 40  1  0  0  0
  9 41  1  0  0  0
 10 42  1  0  0  0
 11 43  1  0  0  0
 11 44  1  0  0  0
 12 45  1  0  0  0
 12 46  1  0  0  0
 13 47  1  0  0  0
 13 48  1  0  0  0
 14 49  1  0  0  0
 14 50  1  0  0  0
 18 51  1  0  0  0
 21 52  1  0  0  0
 27 53  1  0  0  0
 27 54  1  0  0  0
M  END
$$$$
