2evc_ligand
  -I-interpret- 

 25 26  0  0  0  0  0  0  0  0999 V2000
   -1.6830   -0.9390    8.3740 O   0  0  0  0  0
   -0.5820   -0.6950    9.1100 C   0  0  0  0  0
    0.7450   -0.5010    8.5280 C   0  0  0  0  0
    0.8660   -0.5700    7.2870 O   0  0  0  0  0
   -0.9390   -0.6680   10.4390 C   0  0  0  0  0
   -2.3350   -0.9150   10.4910 C   0  0  0  0  0
   -2.7590   -1.0760    9.1830 C   0  0  0  0  0
    1.7320   -0.2750    9.2490 O   0  0  0  0  0
   -4.1290   -1.3610    8.6670 C   0  0  0  0  0
   -5.3160   -0.5850    8.9970 C   0  0  0  0  0
   -6.5800   -0.9380    8.4480 C   0  0  0  0  0
   -6.7100   -2.0430    7.5750 C   0  0  0  0  0
   -5.5770   -2.8140    7.2360 C   0  0  0  0  0
   -4.3070   -2.4760    7.7750 C   0  0  0  0  0
   -5.2580    0.6140    9.9210 C   0  0  0  0  0
   -4.2430    1.3850    9.5890 F   0  0  0  0  0
   -6.3780    1.3030    9.8170 F   0  0  0  0  0
   -5.1000    0.1940   11.1560 F   0  0  0  0  0
    0.0093   -0.7493    6.8926 H   0  0  0  0  0
   -0.2774   -0.4911   11.2870 H   0  0  0  0  0
   -2.9537   -0.9678   11.3869 H   0  0  0  0  0
   -7.4605   -0.3486    8.7037 H   0  0  0  0  0
   -7.6861   -2.2997    7.1634 H   0  0  0  0  0
   -5.6764   -3.6657    6.5630 H   0  0  0  0  0
   -3.4407   -3.0798    7.5046 H   0  0  0  0  0
  1  2  4  0  0  0
  1  7  4  0  0  0
  2  3  1  0  0  0
  2  5  4  0  0  0
  3  4  1  0  0  0
  3  8  2  0  0  0
  5  6  4  0  0  0
  6  7  4  0  0  0
  7  9  1  0  0  0
  9 10  4  0  0  0
  9 14  4  0  0  0
 10 11  4  0  0  0
 10 15  1  0  0  0
 11 12  4  0  0  0
 12 13  4  0  0  0
 13 14  4  0  0  0
 15 16  1  0  0  0
 15 17  1  0  0  0
 15 18  1  0  0  0
  4 19  1  0  0  0
  5 20  1  0  0  0
  6 21  1  0  0  0
 11 22  1  0  0  0
 12 23  1  0  0  0
 13 24  1  0  0  0
 14 25  1  0  0  0
M  END
$$$$
