### 
### Created by X-TOOL on Mon Sep 10 21:12:54 2018
### 

@<TRIPOS>MOLECULE
2f3r_ligand
   82    87     1     0     0
SMALL
GAST_HUCK


@<TRIPOS>ATOM
      1 PE         14.2020   -7.6840   -1.2230 P.3       1 G5P         0.2978
      2 O1E        13.8690   -7.2200    0.1570 O.co2     1 G5P        -0.6127
      3 O2E        13.5000   -7.1010   -2.3760 O.co2     1 G5P        -0.6127
      4 PD         17.2100   -7.6520   -0.9420 P.3       1 G5P         0.3361
      5 O1D        17.6200   -6.5760    0.0390 O.co2     1 G5P        -0.6079
      6 O2D        16.9540   -8.9550   -0.2030 O.co2     1 G5P        -0.6079
      7 O3D        15.7660   -7.3290   -1.5520 O.3       1 G5P        -0.1265
      8 PG         18.5650   -7.4250   -3.4220 P.3       1 G5P         0.3367
      9 O1G        18.3160   -8.5230   -4.4130 O.co2     1 G5P        -0.6078
     10 O2G        19.9520   -6.8950   -3.8200 O.co2     1 G5P        -0.6078
     11 O3G        18.4000   -7.8690   -2.0020 O.3       1 G5P        -0.1210
     12 PB         17.7430   -4.8540   -4.4500 P.3       1 G5P         0.3361
     13 O1B        18.3830   -3.7780   -3.6270 O.co2     1 G5P        -0.6079
     14 O2B        16.5110   -4.3990   -5.2200 O.co2     1 G5P        -0.6079
     15 O3B        17.5650   -6.1810   -3.7240 O.3       1 G5P        -0.1210
     16 O3A        18.8650   -5.1940   -5.6370 O.3       1 G5P        -0.1265
     17 PA         19.4830   -4.3030   -6.7900 P.3       1 G5P         0.2978
     18 O1A        18.8650   -2.9460   -6.8310 O.co2     1 G5P        -0.6127
     19 O2A        19.5970   -5.0690   -8.0950 O.co2     1 G5P        -0.6127
     20 O5         20.9960   -4.1650   -6.2820 O.3       1 G5P        -0.2476
     21 C5         21.2140   -3.4880   -5.0790 C.3       1 G5P         0.1128
     22 C4         22.6290   -3.6400   -4.6250 C.3       1 G5P         0.1189
     23 O4         23.3470   -2.5580   -5.3140 O.3       1 G5P        -0.3363
     24 C3         22.7020   -3.3920   -3.1120 C.3       1 G5P         0.1150
     25 O3         23.8630   -4.1650   -2.6140 O.3       1 G5P        -0.3864
     26 C2         22.9350   -1.9150   -3.0410 C.3       1 G5P         0.1387
     27 O2         23.4540   -1.5510   -1.8130 O.3       1 G5P        -0.3836
     28 C1         23.7960   -1.6510   -4.3340 C.3       1 G5P         0.1992
     29 N9         23.5490   -0.1970   -4.8760 N.pl3     1 G5P        -0.2101
     30 C8         22.3570    0.2660   -5.3660 C.2       1 G5P         0.0957
     31 N7         22.4710    1.5550   -5.7490 N.2       1 G5P        -0.3235
     32 C5         23.7910    1.9000   -5.4810 C.2       1 G5P         0.0926
     33 C6         24.4640    3.1340   -5.6870 C.2       1 G5P         0.2135
     34 O6         23.9490    4.1610   -6.1610 O.2       1 G5P        -0.4091
     35 N1         25.8230    3.1050   -5.2910 N.am      1 G5P        -0.1839
     36 C2         26.4310    1.9590   -4.7500 C.2       1 G5P         0.2340
     37 N2         27.7390    2.0290   -4.4020 N.pl3     1 G5P        -0.2807
     38 N3         25.7700    0.7850   -4.5580 N.2       1 G5P        -0.2765
     39 C4         24.4730    0.8320   -4.9440 C.2       1 G5P         0.1159
     40 AO5        14.2940   -9.2140   -1.3340 O.3       1 G5P        -0.2476
     41 AC5        13.2750  -10.1580   -0.9230 C.3       1 G5P         0.1128
     42 AC4        13.9290  -11.4470   -0.5540 C.3       1 G5P         0.1189
     43 AO4        12.9730  -12.4920   -0.4210 O.3       1 G5P        -0.3364
     44 AC1        13.3660  -13.6580   -1.1920 C.3       1 G5P         0.2010
     45 AC2        14.2150  -13.0910   -2.3240 C.3       1 G5P         0.1385
     46 AO2        14.9530  -14.1870   -2.8770 O.3       1 G5P        -0.3836
     47 AC3        15.0430  -11.9930   -1.5820 C.3       1 G5P         0.1149
     48 AO3        16.1080  -12.5190   -0.7250 O.3       1 G5P        -0.3864
     49 AN9        12.2160  -14.4540   -1.7250 N.pl3     1 G5P        -0.1919
     50 AC4        11.8630  -15.7330   -1.2690 C.ar      1 G5P         0.1613
     51 AN3        12.5050  -16.4700   -0.2610 N.ar      1 G5P        -0.2714
     52 AC2        11.9410  -17.6890   -0.0330 C.ar      1 G5P         0.0533
     53 AN1        10.8480  -18.1970   -0.7010 N.ar      1 G5P        -0.2698
     54 AC6        10.2230  -17.4690   -1.6930 C.ar      1 G5P         0.1298
     55 AN6         9.1840  -18.0740   -2.2600 N.pl3     1 G5P        -0.3152
     56 AC5        10.7540  -16.1390   -2.0120 C.ar      1 G5P         0.1045
     57 AN7        10.4220  -15.1400   -2.9090 N.2       1 G5P        -0.2958
     58 AC8        11.2990  -14.1690   -2.7110 C.2       1 G5P         0.1123
     59 H1         20.5438   -3.8983   -4.3093 H         1 G5P         0.0648
     60 H2         20.9959   -2.4196   -5.2234 H         1 G5P         0.0648
     61 H3         23.0356   -4.6297   -4.8803 H         1 G5P         0.0651
     62 H4         21.7814   -3.6842   -2.5856 H         1 G5P         0.0648
     63 H5         23.9464   -4.0400   -1.6760 H         1 G5P         0.2100
     64 H6         21.9794   -1.3809   -3.1486 H         1 G5P         0.0676
     65 H7         24.2818   -1.9965   -1.6757 H         1 G5P         0.2101
     66 H8         24.8646   -1.7999   -4.1199 H         1 G5P         0.0998
     67 H9         21.4443   -0.3238   -5.4367 H         1 G5P         0.1179
     68 H10        26.3725    3.9333   -5.4006 H         1 G5P         0.2515
     69 H11        28.2106    1.2047   -4.0032 H         1 G5P         0.1897
     70 H12        28.2614    2.9065   -4.5364 H         1 G5P         0.1897
     71 H13        12.5712  -10.3253   -1.7516 H         1 G5P         0.0648
     72 H14        12.7307   -9.7586   -0.0546 H         1 G5P         0.0648
     73 H15        14.4177  -11.2885    0.4186 H         1 G5P         0.0651
     74 H16        13.9760  -14.3223   -0.5622 H         1 G5P         0.0996
     75 H17        13.6019  -12.6331   -3.1142 H         1 G5P         0.0676
     76 H18        15.5016  -14.5702   -2.2027 H         1 G5P         0.2101
     77 H19        15.4297  -11.2298   -2.2734 H         1 G5P         0.0648
     78 H20        16.5647  -11.7968   -0.3099 H         1 G5P         0.2100
     79 H21        12.3879  -18.3091    0.7356 H         1 G5P         0.0996
     80 H22         8.6594  -17.6016   -3.0100 H         1 G5P         0.1820
     81 H23         8.9036  -19.0151   -1.9493 H         1 G5P         0.1820
     82 H24        11.2955  -13.2362   -3.2729 H         1 G5P         0.1349
@<TRIPOS>BOND
     1    1    2 ar 
     2    1    3 ar 
     3    7    1 1  
     4    1   40 1  
     5    4    5 ar 
     6    4    6 ar 
     7    4    7 1  
     8   11    4 1  
     9    8    9 ar 
    10    8   10 ar 
    11    8   11 1  
    12   15    8 1  
    13   12   13 ar 
    14   12   14 ar 
    15   12   15 1  
    16   12   16 1  
    17   16   17 1  
    18   17   18 ar 
    19   17   19 ar 
    20   17   20 1  
    21   20   21 1  
    22   21   22 1  
    23   22   23 1  
    24   22   24 1  
    25   23   28 1  
    26   24   25 1  
    27   24   26 1  
    28   26   27 1  
    29   26   28 1  
    30   28   29 1  
    31   29   30 1  
    32   29   39 1  
    33   30   31 2  
    34   31   32 1  
    35   32   33 1  
    36   32   39 2  
    37   33   34 2  
    38   33   35 am 
    39   35   36 am 
    40   36   37 1  
    41   36   38 2  
    42   38   39 1  
    43   40   41 1  
    44   41   42 1  
    45   42   43 1  
    46   42   47 1  
    47   43   44 1  
    48   44   45 1  
    49   44   49 1  
    50   45   46 1  
    51   45   47 1  
    52   47   48 1  
    53   49   50 1  
    54   49   58 1  
    55   50   51 ar 
    56   50   56 ar 
    57   51   52 ar 
    58   52   53 ar 
    59   53   54 ar 
    60   54   55 1  
    61   54   56 ar 
    62   56   57 1  
    63   57   58 2  
    64   21   59 1  
    65   21   60 1  
    66   22   61 1  
    67   24   62 1  
    68   25   63 1  
    69   26   64 1  
    70   27   65 1  
    71   28   66 1  
    72   30   67 1  
    73   35   68 1  
    74   37   69 1  
    75   37   70 1  
    76   41   71 1  
    77   41   72 1  
    78   42   73 1  
    79   44   74 1  
    80   45   75 1  
    81   46   76 1  
    82   47   77 1  
    83   48   78 1  
    84   52   79 1  
    85   55   80 1  
    86   55   81 1  
    87   58   82 1  
@<TRIPOS>SUBSTRUCTURE
     1 G5P         1

