3mj1_ligand
  -I-interpret- 

 64 68  0  0  0  0  0  0  0  0999 V2000
   15.3460    5.9070   -2.9650 N   0  0  0  0  0
   16.6570    6.3470   -2.7560 N   0  0  0  0  0
   14.3520    6.7050   -3.2340 C   0  0  0  0  0
   16.9760    7.6630   -2.8110 C   0  0  0  0  0
   15.9190    8.6410   -3.1260 C   0  0  0  0  0
   14.6010    8.1540   -3.3450 C   0  0  0  0  0
   12.6870    4.8570   -3.3740 C   0  0  0  0  0
   13.0590    6.2110   -3.4280 N   0  0  0  0  0
   11.4460    4.4500   -3.3600 N   0  0  0  0  0
   13.5080    3.7150   -3.3290 C   0  0  0  0  0
   11.4290    3.0570   -3.3020 N   0  0  0  0  0
   12.7040    2.6250   -3.2850 C   0  0  0  0  0
   15.8800   12.9570   -2.4090 N   0  3  0  0  0
   14.8690   15.4610   -1.4210 N   0  3  0  0  0
   13.5790    9.0530   -3.6640 C   0  0  0  0  0
   17.7070    5.3590   -2.4650 C   0  0  0  0  0
   16.1760   10.0180   -3.2380 C   0  0  0  0  0
   18.1270    8.0310   -2.6260 O   0  0  0  0  0
   15.1430   10.8840   -3.5470 C   0  0  0  0  0
   15.3860   12.3720   -3.6700 C   0  0  0  0  0
   18.7810    2.7280   -2.7890 O   0  0  0  0  0
   14.8780   12.9950   -1.3210 C   0  0  0  0  0
   16.6390   14.2140   -2.6000 C   0  0  0  0  0
   15.7160   15.4430   -2.6240 C   0  0  0  0  0
   14.0120   14.2640   -1.3540 C   0  0  0  0  0
   13.8570   10.4000   -3.7570 C   0  0  0  0  0
   17.1590    4.1630   -1.6660 C   0  0  0  0  0
   18.3070    4.8780   -3.8010 C   0  0  0  0  0
   14.0380   16.6750   -1.3920 C   0  0  0  0  0
   18.2500    3.0920   -1.5070 C   0  0  0  0  0
   19.3680    3.8030   -3.5340 C   0  0  0  0  0
   13.1250    1.1780   -3.2260 C   0  0  0  0  0
   12.3240    6.8901   -3.6253 H   0  0  0  0  0
   14.5980    3.7083   -3.3295 H   0  0  0  0  0
   16.5735   12.2933   -2.0641 H   0  0  0  0  0
   15.4853   15.4604   -0.6083 H   0  0  0  0  0
   12.5661    8.6902   -3.8385 H   0  0  0  0  0
   18.4743    5.8294   -1.8502 H   0  0  0  0  0
   17.1843   10.4015   -3.0821 H   0  0  0  0  0
   16.1418   12.5317   -4.4391 H   0  0  0  0  0
   14.4403   12.8523   -3.9213 H   0  0  0  0  0
   15.4144   12.9812   -0.3722 H   0  0  0  0  0
   14.2177   12.1367   -1.4448 H   0  0  0  0  0
   17.1581   14.1577   -3.5568 H   0  0  0  0  0
   17.3331   14.3241   -1.7668 H   0  0  0  0  0
   16.3241   16.3473   -2.6476 H   0  0  0  0  0
   15.0809   15.3968   -3.5086 H   0  0  0  0  0
   13.3688   14.2351   -2.2335 H   0  0  0  0  0
   13.4071   14.3077   -0.4483 H   0  0  0  0  0
   13.0549   11.0972   -3.9993 H   0  0  0  0  0
   16.3107    3.7341   -2.1995 H   0  0  0  0  0
   16.8455    4.5045   -0.6795 H   0  0  0  0  0
   18.7686    5.7216   -4.3143 H   0  0  0  0  0
   17.5157    4.4583   -4.4221 H   0  0  0  0  0
   14.6819   17.5544   -1.3849 H   0  0  0  0  0
   13.3994   16.6978   -2.2751 H   0  0  0  0  0
   13.4193   16.6689   -0.4947 H   0  0  0  0  0
   19.0541    3.4921   -0.8894 H   0  0  0  0  0
   17.8161    2.2090   -1.0378 H   0  0  0  0  0
   19.7477    3.4233   -4.4826 H   0  0  0  0  0
   20.1886    4.2361   -2.9621 H   0  0  0  0  0
   13.7200    0.9378   -4.1071 H   0  0  0  0  0
   13.7193    1.0102   -2.3278 H   0  0  0  0  0
   12.2388    0.5438   -3.2006 H   0  0  0  0  0
  2  1  1  0  0  0
  1  3  2  0  0  0
  2  4  1  0  0  0
 16  2  1  0  0  0
  3  6  1  0  0  0
  3  8  1  0  0  0
  4  5  1  0  0  0
  4 18  2  0  0  0
  5  6  4  0  0  0
  5 17  4  0  0  0
  6 15  4  0  0  0
  8  7  1  0  0  0
  7  9  4  0  0  0
  7 10  4  0  0  0
  9 11  4  0  0  0
 10 12  4  0  0  0
 12 11  4  0  0  0
 12 32  1  0  0  0
 20 13  1  0  0  0
 13 22  1  0  0  0
 13 23  1  0  0  0
 24 14  1  0  0  0
 25 14  1  0  0  0
 14 29  1  0  0  0
 15 26  4  0  0  0
 27 16  1  0  0  0
 16 28  1  0  0  0
 17 19  4  0  0  0
 19 20  1  0  0  0
 19 26  4  0  0  0
 30 21  1  0  0  0
 21 31  1  0  0  0
 22 25  1  0  0  0
 23 24  1  0  0  0
 27 30  1  0  0  0
 28 31  1  0  0  0
  8 33  1  0  0  0
 10 34  1  0  0  0
 13 35  1  0  0  0
 14 36  1  0  0  0
 15 37  1  0  0  0
 16 38  1  0  0  0
 17 39  1  0  0  0
 20 40  1  0  0  0
 20 41  1  0  0  0
 22 42  1  0  0  0
 22 43  1  0  0  0
 23 44  1  0  0  0
 23 45  1  0  0  0
 24 46  1  0  0  0
 24 47  1  0  0  0
 25 48  1  0  0  0
 25 49  1  0  0  0
 26 50  1  0  0  0
 27 51  1  0  0  0
 27 52  1  0  0  0
 28 53  1  0  0  0
 28 54  1  0  0  0
 29 55  1  0  0  0
 29 56  1  0  0  0
 29 57  1  0  0  0
 30 58  1  0  0  0
 30 59  1  0  0  0
 31 60  1  0  0  0
 31 61  1  0  0  0
 32 62  1  0  0  0
 32 63  1  0  0  0
 32 64  1  0  0  0
M  END
$$$$
