### 
### Created by X-TOOL on Mon Sep 10 21:13:04 2018
### 

@<TRIPOS>MOLECULE
3mj1_ligand
   63    67     1     0     0
SMALL
GAST_HUCK


@<TRIPOS>ATOM
      1 N1         15.3460    5.9070   -2.9650 N.2       1 614        -0.1797
      2 N2         16.6570    6.3470   -2.7560 N.am      1 614        -0.1667
      3 C3         14.3520    6.7050   -3.2340 C.2       1 614         0.1462
      4 C4         16.9760    7.6630   -2.8110 C.2       1 614         0.2321
      5 C5         15.9190    8.6410   -3.1260 C.ar      1 614         0.0567
      6 C6         14.6010    8.1540   -3.3450 C.ar      1 614         0.0301
      7 C7         12.6870    4.8570   -3.3740 C.2       1 614         0.0900
      8 N8         13.0590    6.2110   -3.4280 N.pl3     1 614        -0.2693
      9 N9         11.4460    4.4500   -3.3600 N.2       1 614        -0.2321
     10 C10        13.5080    3.7150   -3.3290 C.2       1 614        -0.0276
     11 N11        11.4290    3.0570   -3.3020 N.pl3     1 614        -0.2351
     12 C12        12.7040    2.6250   -3.2850 C.2       1 614         0.0552
     13 N13        15.8800   12.9570   -2.4090 N.4       1 614         0.4053
     14 N14        14.8690   15.4610   -1.4210 N.4       1 614         0.3980
     15 C15        13.5790    9.0530   -3.6640 C.ar      1 614        -0.0530
     16 C16        17.7070    5.3590   -2.4650 C.3       1 614         0.0851
     17 C17        16.1760   10.0180   -3.2380 C.ar      1 614        -0.0436
     18 O18        18.1270    8.0310   -2.6260 O.2       1 614        -0.3958
     19 C19        15.1430   10.8840   -3.5470 C.ar      1 614        -0.0588
     20 C20        15.3860   12.3720   -3.6700 C.3       1 614        -0.0759
     21 O21        18.7810    2.7280   -2.7890 O.3       1 614        -0.3796
     22 C22        14.8780   12.9950   -1.3210 C.3       1 614        -0.1295
     23 C23        16.6390   14.2140   -2.6000 C.3       1 614        -0.1295
     24 C24        15.7160   15.4430   -2.6240 C.3       1 614        -0.1323
     25 C25        14.0120   14.2640   -1.3540 C.3       1 614        -0.1323
     26 C26        13.8570   10.4000   -3.7570 C.ar      1 614        -0.0581
     27 C27        17.1590    4.1630   -1.6660 C.3       1 614         0.0015
     28 C28        18.3070    4.8780   -3.8010 C.3       1 614         0.0015
     29 C29        14.0380   16.6750   -1.3920 C.3       1 614        -0.1258
     30 C30        18.2500    3.0920   -1.5070 C.3       1 614         0.0504
     31 C31        19.3680    3.8030   -3.5340 C.3       1 614         0.0504
     32 C32        13.1250    1.1780   -3.2260 C.3       1 614        -0.0042
     33 H          12.3240    6.8901   -3.6253 H         1 614         0.2035
     34 H          14.5980    3.7083   -3.3295 H         1 614         0.0214
     35 H          10.5964    2.4683   -3.2769 H         1 614         0.2446
     36 H          12.5661    8.6902   -3.8385 H         1 614         0.0612
     37 H          18.4743    5.8294   -1.8502 H         1 614         0.0654
     38 H          17.1843   10.4015   -3.0821 H         1 614         0.0597
     39 H          16.1418   12.5317   -4.4391 H         1 614         0.0183
     40 H          14.4403   12.8523   -3.9213 H         1 614         0.0183
     41 H          15.4144   12.9812   -0.3722 H         1 614        -0.0000
     42 H          14.2177   12.1367   -1.4448 H         1 614        -0.0000
     43 H          17.1581   14.1577   -3.5568 H         1 614        -0.0000
     44 H          17.3331   14.3241   -1.7668 H         1 614        -0.0000
     45 H          16.3241   16.3473   -2.6476 H         1 614        -0.0003
     46 H          15.0809   15.3968   -3.5086 H         1 614        -0.0003
     47 H          13.3688   14.2351   -2.2335 H         1 614        -0.0003
     48 H          13.4071   14.3077   -0.4483 H         1 614        -0.0003
     49 H          13.0549   11.0972   -3.9993 H         1 614         0.0591
     50 H          16.3107    3.7341   -2.1995 H         1 614         0.0317
     51 H          16.8455    4.5045   -0.6795 H         1 614         0.0317
     52 H          18.7686    5.7216   -4.3143 H         1 614         0.0317
     53 H          17.5157    4.4583   -4.4221 H         1 614         0.0317
     54 H          14.6819   17.5544   -1.3849 H         1 614        -0.0019
     55 H          13.3994   16.6978   -2.2751 H         1 614        -0.0019
     56 H          13.4193   16.6689   -0.4947 H         1 614        -0.0019
     57 H          19.0541    3.4921   -0.8894 H         1 614         0.0561
     58 H          17.8161    2.2090   -1.0378 H         1 614         0.0561
     59 H          19.7477    3.4233   -4.4826 H         1 614         0.0561
     60 H          20.1886    4.2361   -2.9621 H         1 614         0.0561
     61 H          13.7200    0.9378   -4.1071 H         1 614         0.0437
     62 H          13.7193    1.0102   -2.3278 H         1 614         0.0437
     63 H          12.2388    0.5438   -3.2006 H         1 614         0.0437
@<TRIPOS>BOND
     1    2    1 1  
     2    1    3 2  
     3    2    4 am 
     4   16    2 1  
     5    3    6 1  
     6    3    8 1  
     7    4    5 1  
     8    4   18 2  
     9    5    6 ar 
    10    5   17 ar 
    11    6   15 ar 
    12    8    7 1  
    13    7    9 2  
    14    7   10 1  
    15    9   11 1  
    16   10   12 2  
    17   12   11 1  
    18   12   32 1  
    19   20   13 1  
    20   13   22 1  
    21   13   23 1  
    22   24   14 1  
    23   25   14 1  
    24   14   29 1  
    25   15   26 ar 
    26   27   16 1  
    27   16   28 1  
    28   17   19 ar 
    29   19   20 1  
    30   19   26 ar 
    31   30   21 1  
    32   21   31 1  
    33   22   25 1  
    34   23   24 1  
    35   27   30 1  
    36   28   31 1  
    37    8   33 1  
    38   10   34 1  
    39   11   35 1  
    40   15   36 1  
    41   16   37 1  
    42   17   38 1  
    43   20   39 1  
    44   20   40 1  
    45   22   41 1  
    46   22   42 1  
    47   23   43 1  
    48   23   44 1  
    49   24   45 1  
    50   24   46 1  
    51   25   47 1  
    52   25   48 1  
    53   26   49 1  
    54   27   50 1  
    55   27   51 1  
    56   28   52 1  
    57   28   53 1  
    58   29   54 1  
    59   29   55 1  
    60   29   56 1  
    61   30   57 1  
    62   30   58 1  
    63   31   59 1  
    64   31   60 1  
    65   32   61 1  
    66   32   62 1  
    67   32   63 1  
@<TRIPOS>SUBSTRUCTURE
     1 614         1

