4lh6_ligand
  -I-interpret- 

 20 21  0  0  0  0  0  0  0  0999 V2000
   21.6060   34.7650   20.2020 C   0  0  0  0  0
   20.9630   34.5590   18.9150 C   0  0  0  0  0
   20.3370   33.3050   18.8520 C   0  0  0  0  0
   20.2270   35.0290   16.6800 N   0  0  0  0  0
   20.8870   35.4040   17.7680 C   0  0  0  0  0
   18.9580   31.6590   17.5370 C   0  0  0  0  0
   21.4680   33.7630   21.0570 C   0  0  0  0  0
   19.6590   32.9490   17.6520 C   0  0  0  0  0
   19.6190   33.8590   16.5950 C   0  0  0  0  0
   21.4980   36.6420   17.7850 N   0  0  0  0  0
   19.0670   30.8320   18.4120 O   0  0  0  0  0
   18.1780   31.3970   16.4710 N   0  0  0  0  0
   20.5630   32.4340   20.3710 S   0  0  0  0  0
   22.1520   33.7150   22.8140 Br  0  0  0  0  0
   22.1584   35.6728   20.4445 H   0  0  0  0  0
   19.0777   33.6006   15.6849 H   0  0  0  0  0
   22.0022   36.9505   18.6163 H   0  0  0  0  0
   21.4452   37.2481   16.9663 H   0  0  0  0  0
   17.6849   30.5065   16.4064 H   0  0  0  0  0
   18.0803   32.0891   15.7281 H   0  0  0  0  0
  1  2  4  0  0  0
  1  7  4  0  0  0
  2  3  4  0  0  0
  2  5  4  0  0  0
  3  8  4  0  0  0
  3 13  4  0  0  0
  5  4  4  0  0  0
  4  9  4  0  0  0
  5 10  1  0  0  0
  8  6  1  0  0  0
  6 11  2  0  0  0
  6 12  1  0  0  0
  7 13  4  0  0  0
  7 14  1  0  0  0
  8  9  4  0  0  0
  1 15  1  0  0  0
  9 16  1  0  0  0
 10 17  1  0  0  0
 10 18  1  0  0  0
 12 19  1  0  0  0
 12 20  1  0  0  0
M  END
$$$$
