1qin_ligand
  -I-interpret- 

 53 53  0  0  0  0  0  0  0  0999 V2000
    0.4100   -6.3570    3.2680 I   0  0  0  0  0
   -0.2790  -14.9590   14.4160 C   0  0  0  0  0
   -1.1590  -15.4490   15.1660 O   0  0  0  0  0
    0.4540  -14.0230   14.8180 O   0  0  0  0  0
   -0.5200  -16.9060   12.8000 N   0  3  0  0  0
   -0.0870  -15.4980   12.9660 C   0  0  0  0  0
   -0.9160  -14.6570   11.9430 C   0  0  0  0  0
    3.0090  -10.1110   10.1870 C   0  0  0  0  0
    1.8390   -9.1320    9.1600 S   0  0  0  0  0
   -0.4400  -13.1680   11.8020 C   0  0  0  0  0
    0.9230  -12.9780   11.1270 C   0  0  0  0  0
    1.5750  -13.9460   10.7300 O   0  0  0  0  0
    1.3800  -11.7300   10.9680 N   0  0  0  0  0
    2.6770  -11.6010   10.2450 C   0  0  0  0  0
    3.8860  -12.3630   10.9250 C   0  0  0  0  0
    4.0220  -12.3970   12.1590 O   0  0  0  0  0
    4.7910  -12.8070   10.0430 N   0  0  0  0  0
    6.0840  -13.4160   10.4780 C   0  0  0  0  0
    6.8970  -13.7930    9.2230 C   0  0  0  0  0
    6.5450  -13.2850    8.1400 O   0  0  0  0  0
    7.8510  -14.5930    9.3550 O   0  0  0  0  0
    1.4380   -6.3690    9.5320 N   0  0  0  0  0
    1.3950   -5.3090   10.2580 O   0  0  0  0  0
    1.6180   -7.5660   10.0940 C   0  0  0  0  0
    1.7610   -7.6980   11.2960 O   0  0  0  0  0
    1.2300   -6.3400    8.0740 C   0  0  0  0  0
    2.3150   -6.4570    7.1900 C   0  0  0  0  0
   -0.0770   -6.2520    7.6150 C   0  0  0  0  0
    2.0510   -6.4680    5.8180 C   0  0  0  0  0
   -0.3340   -6.2440    6.2350 C   0  0  0  0  0
    0.7300   -6.3630    5.3960 C   0  0  0  0  0
   -1.6217  -16.1491   14.6997 H   0  0  0  0  0
   -0.0038  -17.4982   13.4506 H   0  0  0  0  0
   -1.5191  -16.9781   12.9922 H   0  0  0  0  0
   -0.3339  -17.2071   11.8434 H   0  0  0  0  0
    0.9846  -15.4235   12.7808 H   0  0  0  0  0
   -1.9445  -14.6339   12.3032 H   0  0  0  0  0
   -0.7964  -15.1274   10.9670 H   0  0  0  0  0
    3.9970  -10.0146    9.7368 H   0  0  0  0  0
    2.9514   -9.7245   11.2045 H   0  0  0  0  0
   -0.3454  -12.7732   12.8136 H   0  0  0  0  0
   -1.1733  -12.6639   11.1725 H   0  0  0  0  0
    0.8725  -10.9181   11.3196 H   0  0  0  0  0
    2.5526  -12.0573    9.2629 H   0  0  0  0  0
    4.5917  -12.7270    9.0459 H   0  0  0  0  0
    5.8920  -14.3061   11.0771 H   0  0  0  0  0
    6.6447  -12.7037   11.0833 H   0  0  0  0  0
    7.9294  -14.8463   10.2776 H   0  0  0  0  0
    1.2605   -4.5426    9.6957 H   0  0  0  0  0
    3.3356   -6.5371    7.5642 H   0  0  0  0  0
   -0.9020   -6.1892    8.3246 H   0  0  0  0  0
    2.8618   -6.5568    5.0950 H   0  0  0  0  0
   -1.3490   -6.1460    5.8499 H   0  0  0  0  0
 31  1  1  0  0  0
  6  2  1  0  0  0
  2  4  2  0  0  0
  2  3  1  0  0  0
  6  5  1  0  0  0
  7  6  1  0  0  0
 10  7  1  0  0  0
 11 10  1  0  0  0
 13 11  1  0  0  0
 11 12  2  0  0  0
 14 13  1  0  0  0
 14 15  1  0  0  0
  8 14  1  0  0  0
  9  8  1  0  0  0
 24  9  1  0  0  0
 24 25  2  0  0  0
 22 24  1  0  0  0
 26 22  1  0  0  0
 22 23  1  0  0  0
 26 28  4  0  0  0
 27 26  4  0  0  0
 29 27  4  0  0  0
 29 31  4  0  0  0
 31 30  4  0  0  0
 28 30  4  0  0  0
 15 17  1  0  0  0
 15 16  2  0  0  0
 17 18  1  0  0  0
 18 19  1  0  0  0
 19 21  1  0  0  0
 19 20  2  0  0  0
  3 32  1  0  0  0
  5 33  1  0  0  0
  5 34  1  0  0  0
  5 35  1  0  0  0
  6 36  1  0  0  0
  7 37  1  0  0  0
  7 38  1  0  0  0
  8 39  1  0  0  0
  8 40  1  0  0  0
 10 41  1  0  0  0
 10 42  1  0  0  0
 13 43  1  0  0  0
 14 44  1  0  0  0
 17 45  1  0  0  0
 18 46  1  0  0  0
 18 47  1  0  0  0
 21 48  1  0  0  0
 23 49  1  0  0  0
 27 50  1  0  0  0
 28 51  1  0  0  0
 29 52  1  0  0  0
 30 53  1  0  0  0
M  END
$$$$
