### 
### Created by X-TOOL on Mon Sep 10 21:13:23 2018
### 

@<TRIPOS>MOLECULE
4ywa_ligand
  136   144     1     0     0
SMALL
GAST_HUCK


@<TRIPOS>ATOM
      1 C14        21.1020   22.6460   35.2340 C.3       1 4J9         0.1427
      2 C6         21.8070   23.2290   34.0230 C.3       1 4J9         0.1194
      3 C11        20.2610   26.5380   34.3410 C.2       1 4J9         0.0681
      4 C7         21.2980   23.5520   36.4150 C.3       1 4J9         0.1202
      5 C8         21.7170   22.3010   32.8210 C.3       1 4J9         0.0738
      6 C10        21.1820   25.3890   34.7720 C.3       1 4J9         0.1222
      7 N1         18.5750   27.8340   33.5540 N.2       1 4J9        -0.1015
      8 C3         20.5990   27.8420   34.5120 C.2       1 4J9         0.0725
      9 C2         20.6860   24.8870   36.1120 C.3       1 4J9         0.1170
     10 N4         19.5940   28.5920   34.0480 N.pl3     1 4J9        -0.1729
     11 O5         20.6830   22.9930   37.5660 O.3       1 4J9        -0.3856
     12 O9         21.1630   24.4300   33.7780 O.3       1 4J9        -0.3563
     13 N12        18.9720   26.4720   33.7310 N.2       1 4J9        -0.2238
     14 N13        21.7270   21.4450   35.6180 N.pl3     1 4J9        -0.1729
     15 C15        21.0980   20.3940   36.2470 C.2       1 4J9         0.0721
     16 C16        22.0710   19.4490   36.4570 C.2       1 4J9         0.0626
     17 N17        23.2870   19.9070   35.9870 N.2       1 4J9        -0.2242
     18 N18        23.0750   21.1630   35.4640 N.2       1 4J9        -0.1015
     19 C19        21.8600   18.1140   37.1270 C.3       1 4J9         0.0856
     20 O20        22.6530   18.1700   38.3000 O.3       1 4J9        -0.3395
     21 O21        21.7140   16.9670   39.9790 O.3       1 4J9        -0.3404
     22 C22        22.6440   16.9330   38.9000 C.3       1 4J9         0.1894
     23 C23        22.9100   15.2480   41.1480 C.3       1 4J9         0.1119
     24 C24        21.6040   15.7300   40.5990 C.3       1 4J9         0.1130
     25 O25        23.3920   16.0600   42.2290 O.3       1 4J9        -0.3865
     26 O26        25.2410   14.9780   40.6030 O.3       1 4J9        -0.3864
     27 C27        24.0210   16.6150   39.4000 C.3       1 4J9         0.1342
     28 C28        24.0010   15.2730   40.0590 C.3       1 4J9         0.1141
     29 C29        20.5420   15.8840   41.7250 C.3       1 4J9         0.0730
     30 O30        24.9490   16.5530   38.2930 O.3       1 4J9        -0.3841
     31 O31        19.2900   16.1880   41.1910 O.3       1 4J9        -0.3924
     32 O32        21.0720   25.7560   37.1440 O.3       1 4J9        -0.3850
     33 O33        20.3940   21.8230   32.6920 O.3       1 4J9        -0.3923
     34 C59        19.6600   30.0510   34.0970 C.3       1 4J9         0.1426
     35 C61        20.0080   30.4410   35.4850 C.3       1 4J9         0.1219
     36 C62        20.7450   30.4910   33.1140 C.3       1 4J9         0.1208
     37 C63        21.4950   35.7980   34.6680 C.2       1 4J9         0.0682
     38 C64        20.3520   31.9220   35.5320 C.3       1 4J9         0.1420
     39 N65        21.7290   33.5890   34.4870 N.pl3     1 4J9        -0.1506
     40 N66        22.7800   35.5520   34.2610 N.2       1 4J9        -0.2237
     41 N67        22.9160   34.1820   34.1460 N.2       1 4J9        -0.0995
     42 C68        21.4220   32.1980   34.4990 C.3       1 4J9         0.2152
     43 C69        20.7990   34.5900   34.8170 C.2       1 4J9         0.0748
     44 O70        20.9400   31.8870   33.2320 O.3       1 4J9        -0.3338
     45 C71        20.3810   30.1780   31.7030 C.3       1 4J9         0.0737
     46 O72        18.9200   30.1780   36.3400 O.3       1 4J9        -0.3856
     47 O73        20.8200   32.2390   36.8080 O.3       1 4J9        -0.3833
     48 O74        18.9570   30.3460   31.4810 O.3       1 4J9        -0.3923
     49 O85        21.1650   37.9990   33.8520 O.3       1 4J9        -0.3563
     50 C86        20.8560   37.1320   34.9370 C.3       1 4J9         0.1222
     51 O88        21.5100   39.6030   37.5890 O.3       1 4J9        -0.3856
     52 O89        20.8950   36.8220   37.3250 O.3       1 4J9        -0.3850
     53 N90        20.3660   41.0570   35.6050 N.pl3     1 4J9        -0.1729
     54 O91        21.7560   40.8790   32.8230 O.3       1 4J9        -0.3923
     55 C92        21.0560   39.8720   35.2540 C.3       1 4J9         0.1427
     56 C93        20.4480   39.2190   34.0440 C.3       1 4J9         0.1194
     57 C94        20.5560   40.0780   32.7910 C.3       1 4J9         0.0738
     58 C95        21.3720   37.6370   36.2500 C.3       1 4J9         0.1170
     59 C96        20.8460   39.0180   36.4870 C.3       1 4J9         0.1202
     60 N97        19.0220   41.2840   35.4430 N.2       1 4J9        -0.1015
     61 N98        18.7680   42.5690   35.9630 N.2       1 4J9        -0.2242
     62 C99        19.9680   43.0730   36.4470 C.2       1 4J9         0.0626
     63 CA0        20.9630   42.1590   36.2520 C.2       1 4J9         0.0721
     64 CA1        20.1500   44.4420   37.1010 C.3       1 4J9         0.0856
     65 OA2        19.3860   44.3880   38.2910 O.3       1 4J9        -0.3395
     66 OA3        20.3230   45.5580   39.9890 O.3       1 4J9        -0.3404
     67 CA4        20.4290   46.7960   40.5850 C.3       1 4J9         0.1130
     68 CA5        19.1180   47.3090   41.1520 C.3       1 4J9         0.1119
     69 CA6        18.0640   47.2980   40.0760 C.3       1 4J9         0.1141
     70 CA7        18.0060   45.9670   39.4030 C.3       1 4J9         0.1342
     71 CA8        19.3870   45.6290   38.9060 C.3       1 4J9         0.1894
     72 OA9        17.0870   46.0470   38.3200 O.3       1 4J9        -0.3841
     73 OB0        16.8220   47.5980   40.6500 O.3       1 4J9        -0.3864
     74 OB1        18.6460   46.4700   42.2130 O.3       1 4J9        -0.3865
     75 OB2        22.7160   46.3770   41.1840 O.3       1 4J9        -0.3924
     76 CB3        21.4410   46.6670   41.7200 C.3       1 4J9         0.0730
     77 H1         20.0346   22.4920   35.0172 H         1 4J9         0.0738
     78 H2         22.8674   23.4084   34.2541 H         1 4J9         0.0655
     79 H3         22.3743   23.6771   36.6043 H         1 4J9         0.0655
     80 H4         22.4015   21.4515   32.9618 H         1 4J9         0.0584
     81 H5         21.9981   22.8515   31.9111 H         1 4J9         0.0584
     82 H6         22.2122   25.7562   34.8892 H         1 4J9         0.0740
     83 H7         21.5251   28.2117   34.9498 H         1 4J9         0.0900
     84 H8         19.5896   24.8022   36.0850 H         1 4J9         0.0663
     85 H9         19.7530   22.8843   37.4055 H         1 4J9         0.2100
     86 H10        20.0462   20.3265   36.5211 H         1 4J9         0.0899
     87 H11        22.1929   17.2948   36.4727 H         1 4J9         0.0678
     88 H12        20.7996   17.9716   37.3823 H         1 4J9         0.0678
     89 H13        22.3353   16.1681   38.1723 H         1 4J9         0.0939
     90 H14        22.7734   14.2171   41.5066 H         1 4J9         0.0647
     91 H15        21.2486   14.9922   39.8646 H         1 4J9         0.0647
     92 H16        22.7582   16.0520   42.9366 H         1 4J9         0.2100
     93 H17        25.8990   14.9982   39.9180 H         1 4J9         0.2100
     94 H18        24.3429   17.3848   40.1168 H         1 4J9         0.0671
     95 H19        23.7616   14.5116   39.3020 H         1 4J9         0.0648
     96 H20        20.8506   16.6937   42.4026 H         1 4J9         0.0584
     97 H21        20.4742   14.9411   42.2873 H         1 4J9         0.0584
     98 H22        24.9782   17.3971   37.8581 H         1 4J9         0.2101
     99 H23        19.3430   17.0038   40.7071 H         1 4J9         0.2095
    100 H24        22.0199   25.8138   37.1699 H         1 4J9         0.2102
    101 H25        20.3396   21.2437   31.9410 H         1 4J9         0.2095
    102 H26        18.6936   30.4937   33.8140 H         1 4J9         0.0738
    103 H27        20.8787   29.8567   35.8174 H         1 4J9         0.0655
    104 H28        21.6805   29.9689   33.3635 H         1 4J9         0.0654
    105 H29        19.4576   32.5219   35.3081 H         1 4J9         0.0679
    106 H30        22.3217   31.6068   34.7248 H         1 4J9         0.1031
    107 H31        19.7623   34.4562   35.1223 H         1 4J9         0.0900
    108 H32        20.6584   29.1365   31.4830 H         1 4J9         0.0584
    109 H33        20.9313   30.8537   31.0317 H         1 4J9         0.0584
    110 H34        18.1677   30.6854   36.0586 H         1 4J9         0.2100
    111 H35        20.1396   32.0614   37.4468 H         1 4J9         0.2101
    112 H36        18.4769   29.7616   32.0559 H         1 4J9         0.2095
    113 H37        19.7639   37.0176   35.0025 H         1 4J9         0.0740
    114 H38        22.4393   39.6638   37.4015 H         1 4J9         0.2100
    115 H39        19.9454   36.8417   37.3386 H         1 4J9         0.2102
    116 H40        21.7361   41.4469   33.5843 H         1 4J9         0.2095
    117 H41        22.1234   40.0665   35.0729 H         1 4J9         0.0738
    118 H42        19.3860   39.0072   34.2369 H         1 4J9         0.0655
    119 H43        20.5816   39.4246   31.9065 H         1 4J9         0.0584
    120 H44        19.6806   40.7414   32.7316 H         1 4J9         0.0584
    121 H45        22.4719   37.6422   36.2381 H         1 4J9         0.0663
    122 H46        19.7694   38.9593   36.7048 H         1 4J9         0.0655
    123 H47        22.0087   42.2604   36.5387 H         1 4J9         0.0899
    124 H48        19.7781   45.2383   36.4395 H         1 4J9         0.0678
    125 H49        21.2105   44.6219   37.3311 H         1 4J9         0.0678
    126 H50        20.7946   47.5186   39.8406 H         1 4J9         0.0647
    127 H51        19.2626   48.3331   41.5267 H         1 4J9         0.0647
    128 H52        18.3099   48.0643   39.3261 H         1 4J9         0.0648
    129 H53        17.6708   45.1983   40.1148 H         1 4J9         0.0671
    130 H54        19.7080   46.3997   38.1898 H         1 4J9         0.0939
    131 H55        17.3701   46.7228   37.7152 H         1 4J9         0.2101
    132 H56        16.1575   47.6186   39.9714 H         1 4J9         0.2100
    133 H57        19.2890   46.4536   42.9122 H         1 4J9         0.2100
    134 H58        22.6766   45.5605   40.7000 H         1 4J9         0.2095
    135 H59        21.1336   45.8545   42.3947 H         1 4J9         0.0584
    136 H60        21.4855   47.6123   42.2808 H         1 4J9         0.0584
@<TRIPOS>BOND
     1    2    1 1  
     2    4    1 1  
     3    1   14 1  
     4    2    5 1  
     5   12    2 1  
     6    3    6 1  
     7    8    3 2  
     8    3   13 1  
     9    9    4 1  
    10    4   11 1  
    11    5   33 1  
    12    6    9 1  
    13    6   12 1  
    14   10    7 1  
    15    7   13 2  
    16   10    8 1  
    17    9   32 1  
    18   34   10 1  
    19   14   15 1  
    20   14   18 1  
    21   15   16 2  
    22   17   16 1  
    23   16   19 1  
    24   18   17 2  
    25   19   20 1  
    26   20   22 1  
    27   22   21 1  
    28   21   24 1  
    29   22   27 1  
    30   24   23 1  
    31   23   25 1  
    32   28   23 1  
    33   24   29 1  
    34   28   26 1  
    35   27   28 1  
    36   27   30 1  
    37   29   31 1  
    38   35   34 1  
    39   36   34 1  
    40   38   35 1  
    41   35   46 1  
    42   44   36 1  
    43   36   45 1  
    44   37   40 1  
    45   37   43 2  
    46   50   37 1  
    47   42   38 1  
    48   38   47 1  
    49   39   41 1  
    50   39   42 1  
    51   43   39 1  
    52   40   41 2  
    53   42   44 1  
    54   45   48 1  
    55   49   50 1  
    56   56   49 1  
    57   58   50 1  
    58   59   51 1  
    59   58   52 1  
    60   53   55 1  
    61   53   60 1  
    62   63   53 1  
    63   57   54 1  
    64   55   56 1  
    65   55   59 1  
    66   56   57 1  
    67   59   58 1  
    68   61   60 2  
    69   62   61 1  
    70   62   63 2  
    71   64   62 1  
    72   65   64 1  
    73   71   65 1  
    74   66   67 1  
    75   66   71 1  
    76   67   68 1  
    77   67   76 1  
    78   68   69 1  
    79   68   74 1  
    80   69   70 1  
    81   69   73 1  
    82   70   71 1  
    83   70   72 1  
    84   76   75 1  
    85    1   77 1  
    86    2   78 1  
    87    4   79 1  
    88    5   80 1  
    89    5   81 1  
    90    6   82 1  
    91    8   83 1  
    92    9   84 1  
    93   11   85 1  
    94   15   86 1  
    95   19   87 1  
    96   19   88 1  
    97   22   89 1  
    98   23   90 1  
    99   24   91 1  
   100   25   92 1  
   101   26   93 1  
   102   27   94 1  
   103   28   95 1  
   104   29   96 1  
   105   29   97 1  
   106   30   98 1  
   107   31   99 1  
   108   32  100 1  
   109   33  101 1  
   110   34  102 1  
   111   35  103 1  
   112   36  104 1  
   113   38  105 1  
   114   42  106 1  
   115   43  107 1  
   116   45  108 1  
   117   45  109 1  
   118   46  110 1  
   119   47  111 1  
   120   48  112 1  
   121   50  113 1  
   122   51  114 1  
   123   52  115 1  
   124   54  116 1  
   125   55  117 1  
   126   56  118 1  
   127   57  119 1  
   128   57  120 1  
   129   58  121 1  
   130   59  122 1  
   131   63  123 1  
   132   64  124 1  
   133   64  125 1  
   134   67  126 1  
   135   68  127 1  
   136   69  128 1  
   137   70  129 1  
   138   71  130 1  
   139   72  131 1  
   140   73  132 1  
   141   74  133 1  
   142   75  134 1  
   143   76  135 1  
   144   76  136 1  
@<TRIPOS>SUBSTRUCTURE
     1 4J9         1

