4ywa_ligand
  -I-interpret- 

136144  0  0  0  0  0  0  0  0999 V2000
   21.1020   22.6460   35.2340 C   0  0  0  0  0
   21.8070   23.2290   34.0230 C   0  0  0  0  0
   20.2610   26.5380   34.3410 C   0  0  0  0  0
   21.2980   23.5520   36.4150 C   0  0  0  0  0
   21.7170   22.3010   32.8210 C   0  0  0  0  0
   21.1820   25.3890   34.7720 C   0  0  0  0  0
   18.5750   27.8340   33.5540 N   0  0  0  0  0
   20.5990   27.8420   34.5120 C   0  0  0  0  0
   20.6860   24.8870   36.1120 C   0  0  0  0  0
   19.5940   28.5920   34.0480 N   0  0  0  0  0
   20.6830   22.9930   37.5660 O   0  0  0  0  0
   21.1630   24.4300   33.7780 O   0  0  0  0  0
   18.9720   26.4720   33.7310 N   0  0  0  0  0
   21.7270   21.4450   35.6180 N   0  0  0  0  0
   21.0980   20.3940   36.2470 C   0  0  0  0  0
   22.0710   19.4490   36.4570 C   0  0  0  0  0
   23.2870   19.9070   35.9870 N   0  0  0  0  0
   23.0750   21.1630   35.4640 N   0  0  0  0  0
   21.8600   18.1140   37.1270 C   0  0  0  0  0
   22.6530   18.1700   38.3000 O   0  0  0  0  0
   21.7140   16.9670   39.9790 O   0  0  0  0  0
   22.6440   16.9330   38.9000 C   0  0  0  0  0
   22.9100   15.2480   41.1480 C   0  0  0  0  0
   21.6040   15.7300   40.5990 C   0  0  0  0  0
   23.3920   16.0600   42.2290 O   0  0  0  0  0
   25.2410   14.9780   40.6030 O   0  0  0  0  0
   24.0210   16.6150   39.4000 C   0  0  0  0  0
   24.0010   15.2730   40.0590 C   0  0  0  0  0
   20.5420   15.8840   41.7250 C   0  0  0  0  0
   24.9490   16.5530   38.2930 O   0  0  0  0  0
   19.2900   16.1880   41.1910 O   0  0  0  0  0
   21.0720   25.7560   37.1440 O   0  0  0  0  0
   20.3940   21.8230   32.6920 O   0  0  0  0  0
   19.6600   30.0510   34.0970 C   0  0  0  0  0
   20.0080   30.4410   35.4850 C   0  0  0  0  0
   20.7450   30.4910   33.1140 C   0  0  0  0  0
   21.4950   35.7980   34.6680 C   0  0  0  0  0
   20.3520   31.9220   35.5320 C   0  0  0  0  0
   21.7290   33.5890   34.4870 N   0  0  0  0  0
   22.7800   35.5520   34.2610 N   0  0  0  0  0
   22.9160   34.1820   34.1460 N   0  0  0  0  0
   21.4220   32.1980   34.4990 C   0  0  0  0  0
   20.7990   34.5900   34.8170 C   0  0  0  0  0
   20.9400   31.8870   33.2320 O   0  0  0  0  0
   20.3810   30.1780   31.7030 C   0  0  0  0  0
   18.9200   30.1780   36.3400 O   0  0  0  0  0
   20.8200   32.2390   36.8080 O   0  0  0  0  0
   18.9570   30.3460   31.4810 O   0  0  0  0  0
   21.1650   37.9990   33.8520 O   0  0  0  0  0
   20.8560   37.1320   34.9370 C   0  0  0  0  0
   21.5100   39.6030   37.5890 O   0  0  0  0  0
   20.8950   36.8220   37.3250 O   0  0  0  0  0
   20.3660   41.0570   35.6050 N   0  0  0  0  0
   21.7560   40.8790   32.8230 O   0  0  0  0  0
   21.0560   39.8720   35.2540 C   0  0  0  0  0
   20.4480   39.2190   34.0440 C   0  0  0  0  0
   20.5560   40.0780   32.7910 C   0  0  0  0  0
   21.3720   37.6370   36.2500 C   0  0  0  0  0
   20.8460   39.0180   36.4870 C   0  0  0  0  0
   19.0220   41.2840   35.4430 N   0  0  0  0  0
   18.7680   42.5690   35.9630 N   0  0  0  0  0
   19.9680   43.0730   36.4470 C   0  0  0  0  0
   20.9630   42.1590   36.2520 C   0  0  0  0  0
   20.1500   44.4420   37.1010 C   0  0  0  0  0
   19.3860   44.3880   38.2910 O   0  0  0  0  0
   20.3230   45.5580   39.9890 O   0  0  0  0  0
   20.4290   46.7960   40.5850 C   0  0  0  0  0
   19.1180   47.3090   41.1520 C   0  0  0  0  0
   18.0640   47.2980   40.0760 C   0  0  0  0  0
   18.0060   45.9670   39.4030 C   0  0  0  0  0
   19.3870   45.6290   38.9060 C   0  0  0  0  0
   17.0870   46.0470   38.3200 O   0  0  0  0  0
   16.8220   47.5980   40.6500 O   0  0  0  0  0
   18.6460   46.4700   42.2130 O   0  0  0  0  0
   22.7160   46.3770   41.1840 O   0  0  0  0  0
   21.4410   46.6670   41.7200 C   0  0  0  0  0
   20.0532   22.5106   34.9700 H   0  0  0  0  0
   22.8729   23.3657   34.2054 H   0  0  0  0  0
   22.3640   23.6693   36.6102 H   0  0  0  0  0
   22.3951   21.4591   32.9608 H   0  0  0  0  0
   21.9953   22.8468   31.9194 H   0  0  0  0  0
   22.2205   25.6944   34.8996 H   0  0  0  0  0
   21.5259   28.2120   34.9502 H   0  0  0  0  0
   19.5994   24.8220   36.0554 H   0  0  0  0  0
   21.0781   22.1389   37.7556 H   0  0  0  0  0
   20.0453   20.3265   36.5214 H   0  0  0  0  0
   22.1483   17.2849   36.4808 H   0  0  0  0  0
   20.8092   17.9354   37.3550 H   0  0  0  0  0
   22.3483   16.1608   38.1898 H   0  0  0  0  0
   22.7190   14.2364   41.5062 H   0  0  0  0  0
   21.3003   14.9764   39.8724 H   0  0  0  0  0
   24.2285   15.7090   42.5431 H   0  0  0  0  0
   25.9059   14.9984   39.9108 H   0  0  0  0  0
   24.3299   17.3904   40.1010 H   0  0  0  0  0
   23.7732   14.5135   39.3111 H   0  0  0  0  0
   20.8473   16.6953   42.3858 H   0  0  0  0  0
   20.4710   14.9430   42.2706 H   0  0  0  0  0
   25.8268   16.3490   38.6238 H   0  0  0  0  0
   18.6528   16.2780   41.9034 H   0  0  0  0  0
   20.7478   25.4192   37.9825 H   0  0  0  0  0
   20.3390   21.2376   31.9331 H   0  0  0  0  0
   18.7152   30.5214   33.8245 H   0  0  0  0  0
   20.8709   29.8621   35.8142 H   0  0  0  0  0
   21.6558   29.9451   33.3599 H   0  0  0  0  0
   19.4729   32.5292   35.3161 H   0  0  0  0  0
   22.2997   31.6009   34.7466 H   0  0  0  0  0
   19.7613   34.4561   35.1226 H   0  0  0  0  0
   20.6462   29.1412   31.4963 H   0  0  0  0  0
   20.9194   30.8597   31.0446 H   0  0  0  0  0
   19.1504   30.4321   37.2366 H   0  0  0  0  0
   21.0390   33.1730   36.8444 H   0  0  0  0  0
   18.7501   30.1386   30.5668 H   0  0  0  0  0
   19.7703   37.0670   35.0088 H   0  0  0  0  0
   21.3746   39.0590   38.3683 H   0  0  0  0  0
   21.2351   37.1600   38.1566 H   0  0  0  0  0
   21.8050   41.4119   32.0260 H   0  0  0  0  0
   22.1016   40.0354   34.9930 H   0  0  0  0  0
   19.3822   39.0619   34.2101 H   0  0  0  0  0
   20.5913   39.4255   31.9186 H   0  0  0  0  0
   19.6917   40.7403   32.7425 H   0  0  0  0  0
   22.4613   37.6199   36.2147 H   0  0  0  0  0
   19.7790   38.9568   36.7013 H   0  0  0  0  0
   22.0096   42.2605   36.5389 H   0  0  0  0  0
   19.8189   45.2481   36.4463 H   0  0  0  0  0
   21.1994   44.6540   37.3057 H   0  0  0  0  0
   20.7375   47.5127   39.8239 H   0  0  0  0  0
   19.2970   48.3164   41.5279 H   0  0  0  0  0
   18.3160   48.0462   39.3245 H   0  0  0  0  0
   17.6732   45.1897   40.0909 H   0  0  0  0  0
   19.6751   46.4144   38.2072 H   0  0  0  0  0
   17.0402   45.1961   37.8780 H   0  0  0  0  0
   16.1460   47.5924   39.9684 H   0  0  0  0  0
   17.8177   46.8186   42.5507 H   0  0  0  0  0
   23.3516   46.2961   41.8989 H   0  0  0  0  0
   21.1363   45.8618   42.3885 H   0  0  0  0  0
   21.4850   47.6038   42.2756 H   0  0  0  0  0
  2  1  1  0  0  0
  4  1  1  0  0  0
  1 14  1  0  0  0
  2  5  1  0  0  0
 12  2  1  0  0  0
  3  6  1  0  0  0
  8  3  4  0  0  0
  3 13  4  0  0  0
  9  4  1  0  0  0
  4 11  1  0  0  0
  5 33  1  0  0  0
  6  9  1  0  0  0
  6 12  1  0  0  0
 10  7  4  0  0  0
  7 13  4  0  0  0
 10  8  4  0  0  0
  9 32  1  0  0  0
 34 10  1  0  0  0
 14 15  4  0  0  0
 14 18  4  0  0  0
 15 16  4  0  0  0
 17 16  4  0  0  0
 16 19  1  0  0  0
 18 17  4  0  0  0
 19 20  1  0  0  0
 20 22  1  0  0  0
 22 21  1  0  0  0
 21 24  1  0  0  0
 22 27  1  0  0  0
 24 23  1  0  0  0
 23 25  1  0  0  0
 28 23  1  0  0  0
 24 29  1  0  0  0
 28 26  1  0  0  0
 27 28  1  0  0  0
 27 30  1  0  0  0
 29 31  1  0  0  0
 35 34  1  0  0  0
 36 34  1  0  0  0
 38 35  1  0  0  0
 35 46  1  0  0  0
 44 36  1  0  0  0
 36 45  1  0  0  0
 37 40  4  0  0  0
 37 43  4  0  0  0
 50 37  1  0  0  0
 42 38  1  0  0  0
 38 47  1  0  0  0
 39 41  4  0  0  0
 39 42  1  0  0  0
 43 39  4  0  0  0
 40 41  4  0  0  0
 42 44  1  0  0  0
 45 48  1  0  0  0
 49 50  1  0  0  0
 56 49  1  0  0  0
 58 50  1  0  0  0
 59 51  1  0  0  0
 58 52  1  0  0  0
 53 55  1  0  0  0
 53 60  4  0  0  0
 63 53  4  0  0  0
 57 54  1  0  0  0
 55 56  1  0  0  0
 55 59  1  0  0  0
 56 57  1  0  0  0
 59 58  1  0  0  0
 61 60  4  0  0  0
 62 61  4  0  0  0
 62 63  4  0  0  0
 64 62  1  0  0  0
 65 64  1  0  0  0
 71 65  1  0  0  0
 66 67  1  0  0  0
 66 71  1  0  0  0
 67 68  1  0  0  0
 67 76  1  0  0  0
 68 69  1  0  0  0
 68 74  1  0  0  0
 69 70  1  0  0  0
 69 73  1  0  0  0
 70 71  1  0  0  0
 70 72  1  0  0  0
 76 75  1  0  0  0
  1 77  1  0  0  0
  2 78  1  0  0  0
  4 79  1  0  0  0
  5 80  1  0  0  0
  5 81  1  0  0  0
  6 82  1  0  0  0
  8 83  1  0  0  0
  9 84  1  0  0  0
 11 85  1  0  0  0
 15 86  1  0  0  0
 19 87  1  0  0  0
 19 88  1  0  0  0
 22 89  1  0  0  0
 23 90  1  0  0  0
 24 91  1  0  0  0
 25 92  1  0  0  0
 26 93  1  0  0  0
 27 94  1  0  0  0
 28 95  1  0  0  0
 29 96  1  0  0  0
 29 97  1  0  0  0
 30 98  1  0  0  0
 31 99  1  0  0  0
 32100  1  0  0  0
 33101  1  0  0  0
 34102  1  0  0  0
 35103  1  0  0  0
 36104  1  0  0  0
 38105  1  0  0  0
 42106  1  0  0  0
 43107  1  0  0  0
 45108  1  0  0  0
 45109  1  0  0  0
 46110  1  0  0  0
 47111  1  0  0  0
 48112  1  0  0  0
 50113  1  0  0  0
 51114  1  0  0  0
 52115  1  0  0  0
 54116  1  0  0  0
 55117  1  0  0  0
 56118  1  0  0  0
 57119  1  0  0  0
 57120  1  0  0  0
 58121  1  0  0  0
 59122  1  0  0  0
 63123  1  0  0  0
 64124  1  0  0  0
 64125  1  0  0  0
 67126  1  0  0  0
 68127  1  0  0  0
 69128  1  0  0  0
 70129  1  0  0  0
 71130  1  0  0  0
 72131  1  0  0  0
 73132  1  0  0  0
 74133  1  0  0  0
 75134  1  0  0  0
 76135  1  0  0  0
 76136  1  0  0  0
M  END
$$$$
