5zkc_ligand
  -I-interpret- 

 47 50  0  0  0  0  0  0  0  0999 V2000
  186.1620   24.4620  525.6110 C   0  0  0  0  0
  181.9930   26.8730  524.8220 C   0  0  0  0  0
  181.4450   29.3020  524.1570 C   0  0  0  0  0
  182.9440   29.3990  526.0350 C   0  0  0  0  0
  180.3730   30.9610  525.6400 C   0  0  0  0  0
  179.2940   28.9530  525.2640 C   0  0  0  0  0
  181.5200   28.8810  526.3590 C   0  0  0  0  0
  180.6430   29.5350  525.3670 N   0  3  0  0  0
  181.4080   27.8110  523.7470 C   0  0  0  0  0
  182.8910   29.7010  524.5610 C   0  0  0  0  0
  183.1500   30.7590  525.5430 O   0  0  0  0  0
  181.5170   27.3460  526.2150 C   0  0  0  0  0
  183.4350   26.7790  524.6850 O   0  0  0  0  0
  184.0310   25.7740  525.3780 C   0  0  0  0  0
  183.4350   24.8590  525.9450 O   0  0  0  0  0
  185.5630   25.8500  525.3730 C   0  0  0  0  0
  185.7660   23.5920  524.5440 O   0  0  0  0  0
  185.9970   26.7490  526.3460 C   0  0  0  0  0
  186.5020   27.9840  525.9590 C   0  0  0  0  0
  186.9350   28.8910  526.9180 C   0  0  0  0  0
  186.8620   28.5640  528.2670 C   0  0  0  0  0
  186.3560   27.3280  528.6560 C   0  0  0  0  0
  185.9220   26.4210  527.6950 C   0  0  0  0  0
  185.8027   24.0652  526.5605 H   0  0  0  0  0
  187.2493   24.5322  525.6429 H   0  0  0  0  0
  181.6261   25.8550  524.6909 H   0  0  0  0  0
  181.0695   29.8720  523.3072 H   0  0  0  0  0
  183.5022   28.8518  526.7947 H   0  0  0  0  0
  179.8855   31.0579  526.6101 H   0  0  0  0  0
  181.3132   31.5125  525.6476 H   0  0  0  0  0
  179.7217   31.3614  524.8631 H   0  0  0  0  0
  179.3729   27.9050  524.9750 H   0  0  0  0  0
  178.7925   29.0284  526.2288 H   0  0  0  0  0
  178.7217   29.4964  524.5122 H   0  0  0  0  0
  181.1843   29.1079  527.3709 H   0  0  0  0  0
  180.3642   27.5342  523.5986 H   0  0  0  0  0
  182.0122   27.7001  522.8466 H   0  0  0  0  0
  183.3852   29.5195  523.6066 H   0  0  0  0  0
  182.2038   26.9400  526.9577 H   0  0  0  0  0
  180.4925   27.0002  526.3525 H   0  0  0  0  0
  185.8996   26.2044  524.3987 H   0  0  0  0  0
  186.1394   22.7195  524.6887 H   0  0  0  0  0
  186.5586   28.2417  524.9014 H   0  0  0  0  0
  187.3320   29.8591  526.6126 H   0  0  0  0  0
  187.2011   29.2757  529.0197 H   0  0  0  0  0
  186.2996   27.0704  529.7136 H   0  0  0  0  0
  185.5232   25.4533  527.9994 H   0  0  0  0  0
 16  1  1  0  0  0
  1 17  1  0  0  0
  2  9  1  0  0  0
  2 12  1  0  0  0
 13  2  1  0  0  0
  3  8  1  0  0  0
  9  3  1  0  0  0
  3 10  1  0  0  0
  7  4  1  0  0  0
  4 10  1  0  0  0
  4 11  1  0  0  0
  8  5  1  0  0  0
  8  6  1  0  0  0
  7  8  1  0  0  0
 12  7  1  0  0  0
 10 11  1  0  0  0
 14 13  1  0  0  0
 14 15  2  0  0  0
 14 16  1  0  0  0
 16 18  1  0  0  0
 18 19  4  0  0  0
 18 23  4  0  0  0
 19 20  4  0  0  0
 20 21  4  0  0  0
 21 22  4  0  0  0
 22 23  4  0  0  0
  1 24  1  0  0  0
  1 25  1  0  0  0
  2 26  1  0  0  0
  3 27  1  0  0  0
  4 28  1  0  0  0
  5 29  1  0  0  0
  5 30  1  0  0  0
  5 31  1  0  0  0
  6 32  1  0  0  0
  6 33  1  0  0  0
  6 34  1  0  0  0
  7 35  1  0  0  0
  9 36  1  0  0  0
  9 37  1  0  0  0
 10 38  1  0  0  0
 12 39  1  0  0  0
 12 40  1  0  0  0
 16 41  1  0  0  0
 17 42  1  0  0  0
 19 43  1  0  0  0
 20 44  1  0  0  0
 21 45  1  0  0  0
 22 46  1  0  0  0
 23 47  1  0  0  0
M  END
$$$$
