5afm_ligand
  -I-interpret- 

 23 23  0  0  0  0  0  0  0  0999 V2000
   28.6070    8.9240  -26.6830 O   0  0  0  0  0
   29.3750    8.5490  -27.5620 C   0  0  0  0  0
   30.7830    8.3870  -27.3110 N   0  0  0  0  0
   31.4600    8.6700  -26.0730 C   0  0  0  0  0
   31.3040    7.8190  -24.8390 C   0  0  0  0  0
   30.1050    8.0380  -23.9730 C   0  0  0  0  0
   30.1220    7.6310  -22.6490 O   0  0  0  0  0
   28.8790    8.2620  -28.9400 C   0  0  0  0  0
   29.7060    8.1960  -30.0540 C   0  0  0  0  0
   28.8910    7.9670  -31.1490 C   0  0  0  0  0
   29.4760    7.7910  -32.9910 Br  0  0  0  0  0
   27.5810    7.9060  -30.6880 C   0  0  0  0  0
   26.0250    7.5800  -31.8200 Br  0  0  0  0  0
   27.6050    8.0700  -29.3400 N   0  0  0  0  0
   31.3536    8.0395  -28.0817 H   0  0  0  0  0
   31.0341    9.6266  -25.7703 H   0  0  0  0  0
   32.5115    8.5433  -26.3306 H   0  0  0  0  0
   32.1599    8.0658  -24.2108 H   0  0  0  0  0
   31.2094    6.7970  -25.2060 H   0  0  0  0  0
   29.3229    7.4342  -24.4333 H   0  0  0  0  0
   29.9996    9.1217  -23.9232 H   0  0  0  0  0
   29.2806    7.8444  -22.2390 H   0  0  0  0  0
   30.7906    8.3040  -30.0640 H   0  0  0  0  0
  1  2  2  0  0  0
  2  3  1  0  0  0
  2  8  1  0  0  0
  3  4  1  0  0  0
  4  5  1  0  0  0
  5  6  1  0  0  0
  6  7  1  0  0  0
  8  9  4  0  0  0
  8 14  4  0  0  0
  9 10  4  0  0  0
 10 11  1  0  0  0
 10 12  4  0  0  0
 12 13  1  0  0  0
 12 14  4  0  0  0
  3 15  1  0  0  0
  4 16  1  0  0  0
  4 17  1  0  0  0
  5 18  1  0  0  0
  5 19  1  0  0  0
  6 20  1  0  0  0
  6 21  1  0  0  0
  7 22  1  0  0  0
  9 23  1  0  0  0
M  END
$$$$
