2oqv_ligand
  -I-interpret- 

 54 57  0  0  0  0  0  0  0  0999 V2000
   12.5690   57.4790   17.5540 C   0  0  0  0  0
   11.4670   57.7700   18.3790 C   0  0  0  0  0
   11.4500   57.3370   19.7170 C   0  0  0  0  0
   12.5340   56.6130   20.2430 C   0  0  0  0  0
   14.8090   55.5780   19.7760 C   0  0  0  0  0
   17.9610   52.7550   23.7730 C   0  0  0  0  0
   18.0880   52.9420   26.2240 C   0  0  0  0  0
   18.7540   51.6110   28.5400 C   0  0  0  0  0
   18.8120   53.6040   27.1950 C   0  0  0  0  0
   16.3830   54.2760   24.9170 C   0  0  0  0  0
   16.3720   55.2100   23.7150 C   0  0  0  0  0
   19.1690   54.8820   26.9980 F   0  0  0  0  0
   19.1460   52.9380   28.3750 C   0  0  0  0  0
   19.0530   50.9540   29.6600 F   0  0  0  0  0
   18.0500   50.9510   27.5590 C   0  0  0  0  0
   17.6860   49.6740   27.7350 F   0  0  0  0  0
   17.7110   51.6120   26.3960 C   0  0  0  0  0
   17.7720   53.6660   24.9780 C   0  0  0  0  0
   18.1300   53.6560   22.5790 C   0  0  0  0  0
   16.0770   54.9990   26.1310 N   0  3  0  0  0
   16.9490   54.5150   22.5490 N   0  0  0  0  0
   16.4010   54.6950   21.2820 C   0  0  0  0  0
   15.2530   55.4690   21.0830 C   0  0  0  0  0
   17.0250   54.0970   20.2190 N   0  0  0  0  0
   16.5550   54.2230   18.9620 C   0  0  0  0  0
   15.4550   54.9600   18.7490 N   0  0  0  0  0
   13.6190   56.3440   19.4030 C   0  0  0  0  0
   13.6290   56.7660   18.0840 C   0  0  0  0  0
   12.7010   57.9180   16.0130 S   0  0  0  0  0
   13.7310   58.9330   15.8900 O   0  0  0  0  0
   11.4230   58.4190   15.5510 O   0  0  0  0  0
   13.1240   56.5650   15.1150 C   0  0  0  0  0
   10.6234   58.3331   17.9797 H   0  0  0  0  0
   10.5917   57.5640   20.3494 H   0  0  0  0  0
   12.5289   56.2705   21.2778 H   0  0  0  0  0
   17.1039   52.0939   23.6451 H   0  0  0  0  0
   18.8311   52.1114   23.9027 H   0  0  0  0  0
   15.6241   53.4998   24.8186 H   0  0  0  0  0
   16.9633   56.0979   23.9387 H   0  0  0  0  0
   15.3464   55.5044   23.4923 H   0  0  0  0  0
   19.7064   53.4493   29.1577 H   0  0  0  0  0
   17.1511   51.0961   25.6160 H   0  0  0  0  0
   18.4724   54.5011   24.9624 H   0  0  0  0  0
   18.2200   53.0781   21.6592 H   0  0  0  0  0
   19.0437   54.2453   22.6566 H   0  0  0  0  0
   16.0900   54.3546   26.9215 H   0  0  0  0  0
   16.7740   55.7297   26.2750 H   0  0  0  0  0
   15.1519   55.4210   26.0500 H   0  0  0  0  0
   14.7375   55.9583   21.9094 H   0  0  0  0  0
   17.0617   53.7329   18.1306 H   0  0  0  0  0
   14.4866   56.5323   17.4530 H   0  0  0  0  0
   13.2310   56.8450   14.0670 H   0  0  0  0  0
   14.0689   56.1663   15.4842 H   0  0  0  0  0
   12.3459   55.8079   15.2126 H   0  0  0  0  0
  2  1  4  0  0  0
  1 28  4  0  0  0
  1 29  1  0  0  0
  3  2  4  0  0  0
  4  3  4  0  0  0
 27  4  4  0  0  0
 23  5  4  0  0  0
  5 26  4  0  0  0
  5 27  1  0  0  0
  6 18  1  0  0  0
 19  6  1  0  0  0
  7  9  4  0  0  0
  7 17  4  0  0  0
 18  7  1  0  0  0
 13  8  4  0  0  0
  8 14  1  0  0  0
 15  8  4  0  0  0
  9 12  1  0  0  0
  9 13  4  0  0  0
 11 10  1  0  0  0
 10 18  1  0  0  0
 10 20  1  0  0  0
 21 11  1  0  0  0
 15 16  1  0  0  0
 17 15  4  0  0  0
 21 19  1  0  0  0
 22 21  1  0  0  0
 22 23  4  0  0  0
 22 24  4  0  0  0
 24 25  4  0  0  0
 25 26  4  0  0  0
 27 28  4  0  0  0
 29 30  2  0  0  0
 29 31  2  0  0  0
 29 32  1  0  0  0
  2 33  1  0  0  0
  3 34  1  0  0  0
  4 35  1  0  0  0
  6 36  1  0  0  0
  6 37  1  0  0  0
 10 38  1  0  0  0
 11 39  1  0  0  0
 11 40  1  0  0  0
 13 41  1  0  0  0
 17 42  1  0  0  0
 18 43  1  0  0  0
 19 44  1  0  0  0
 19 45  1  0  0  0
 20 46  1  0  0  0
 20 47  1  0  0  0
 20 48  1  0  0  0
 23 49  1  0  0  0
 25 50  1  0  0  0
 28 51  1  0  0  0
 32 52  1  0  0  0
 32 53  1  0  0  0
 32 54  1  0  0  0
M  END
$$$$
