1j01_ligand
  -I-interpret- 

 35 36  0  0  0  0  0  0  0  0999 V2000
   16.9390   65.2780   38.6890 C   0  0  0  0  0
   16.7360   64.2640   39.8230 C   0  0  0  0  0
   17.6110   63.1630   39.6270 O   0  0  0  0  0
   15.2860   63.7640   39.8530 C   0  0  0  0  0
   15.0750   62.9680   41.0130 O   0  0  0  0  0
   14.3070   64.9340   39.8570 C   0  0  0  0  0
   12.9860   64.4390   39.7100 O   0  0  0  0  0
   14.6260   65.9000   38.7090 C   0  0  0  0  0
   15.9950   66.3540   38.8070 O   0  0  0  0  0
   20.3010   67.7760   35.6970 N   0  0  0  0  0
   20.3400   68.3380   37.0000 C   0  0  0  0  0
   19.6480   67.6930   38.0530 C   0  0  0  0  0
   21.1920   69.1770   37.2630 O   0  0  0  0  0
   19.2260   68.4610   39.1620 O   0  0  0  0  0
   18.5500   66.6550   37.6440 C   0  0  0  0  0
   18.2770   65.8240   38.7680 O   0  0  0  0  0
   19.0280   65.8500   36.4310 C   0  0  0  0  0
   19.2710   66.8340   35.3220 C   0  0  0  0  0
   16.7920   64.7708   37.7354 H   0  0  0  0  0
   16.9539   64.7522   40.7729 H   0  0  0  0  0
   18.5183   63.4761   39.6083 H   0  0  0  0  0
   15.1121   63.1664   38.9582 H   0  0  0  0  0
   15.6909   62.2316   41.0108 H   0  0  0  0  0
   14.3972   65.4711   40.8012 H   0  0  0  0  0
   12.7899   63.8350   40.4299 H   0  0  0  0  0
   13.9589   66.7599   38.7695 H   0  0  0  0  0
   14.4875   65.3842   37.7588 H   0  0  0  0  0
   21.0112   68.0412   35.0146 H   0  0  0  0  0
   20.5049   67.1299   38.4228 H   0  0  0  0  0
   19.9134   69.0894   39.3948 H   0  0  0  0  0
   17.6266   67.1559   37.3531 H   0  0  0  0  0
   18.2805   65.1132   36.1371 H   0  0  0  0  0
   19.9393   65.3003   36.6666 H   0  0  0  0  0
   19.5934   66.2925   34.4327 H   0  0  0  0  0
   18.3481   67.3790   35.1239 H   0  0  0  0  0
  1 16  1  0  0  0
  1  9  1  0  0  0
  1  2  1  0  0  0
  2  4  1  0  0  0
  2  3  1  0  0  0
  4  6  1  0  0  0
  4  5  1  0  0  0
  6  8  1  0  0  0
  6  7  1  0  0  0
  8  9  1  0  0  0
 16 15  1  0  0  0
 15 17  1  0  0  0
 15 12  1  0  0  0
 12 14  1  0  0  0
 12 11  1  0  0  0
 11 13  2  0  0  0
 11 10  1  0  0  0
 10 18  1  0  0  0
 18 17  1  0  0  0
  1 19  1  0  0  0
  2 20  1  0  0  0
  3 21  1  0  0  0
  4 22  1  0  0  0
  5 23  1  0  0  0
  6 24  1  0  0  0
  7 25  1  0  0  0
  8 26  1  0  0  0
  8 27  1  0  0  0
 10 28  1  0  0  0
 12 29  1  0  0  0
 14 30  1  0  0  0
 15 31  1  0  0  0
 17 32  1  0  0  0
 17 33  1  0  0  0
 18 34  1  0  0  0
 18 35  1  0  0  0
M  END
$$$$
