2yfx_ligand
  -I-interpret- 

 53 56  0  0  0  0  0  0  0  0999 V2000
   33.2070   46.1070    6.4440 Cl  0  0  0  0  0
   33.6970   45.8390    8.0910 C   0  0  0  0  0
   34.5300   46.8340    8.6780 C   0  0  0  0  0
   34.9870   46.7120   10.0140 C   0  0  0  0  0
   34.6210   45.5890   10.8030 C   0  0  0  0  0
   35.0760   45.5080   12.0650 F   0  0  0  0  0
   33.2980   44.6720    8.8630 C   0  0  0  0  0
   33.7800   44.5630   10.2490 C   0  0  0  0  0
   33.3790   43.2190   11.2970 Cl  0  0  0  0  0
   32.3850   43.5800    8.2020 C   0  0  0  0  0
   33.1000   42.2190    8.1980 C   0  0  0  0  0
   31.0970   43.3550    8.8780 O   0  0  0  0  0
   30.0750   44.2980    9.0310 C   0  0  0  0  0
   29.9670   45.5330    8.3040 C   0  0  0  0  0
   29.0210   44.0250    9.9640 C   0  0  0  0  0
   29.0600   42.8270   10.7070 N   0  0  0  0  0
   27.9640   44.8480   10.1840 N   0  0  0  0  0
   27.8920   46.0120    9.4790 C   0  0  0  0  0
   28.8710   46.4160    8.5180 C   0  0  0  0  0
   28.7630   47.7180    7.7450 C   0  0  0  0  0
   29.8280   48.4300    7.0310 C   0  0  0  0  0
   27.6270   48.4950    7.5570 C   0  0  0  0  0
   28.0760   49.5740    6.7720 N   0  0  0  0  0
   29.3340   49.4940    6.4990 N   0  0  0  0  0
   27.2350   50.6960    6.2910 C   0  0  0  0  0
   26.8940   51.6490    7.4550 C   0  0  0  0  0
   26.0170   52.8090    6.9290 C   0  0  0  0  0
   24.7880   52.3200    6.2390 N   0  3  0  0  0
   25.0880   51.3610    5.1380 C   0  0  0  0  0
   25.9410   50.1670    5.6240 C   0  0  0  0  0
   34.8210   47.7042    8.0897 H   0  0  0  0  0
   35.6248   47.4866   10.4397 H   0  0  0  0  0
   32.1895   43.9696    7.2029 H   0  0  0  0  0
   33.2453   41.8833    9.2248 H   0  0  0  0  0
   32.4920   41.4922    7.6594 H   0  0  0  0  0
   34.0679   42.3200    7.7070 H   0  0  0  0  0
   30.7357   45.7976    7.5779 H   0  0  0  0  0
   29.8298   42.1707   10.5763 H   0  0  0  0  0
   28.3184   42.6168   11.3751 H   0  0  0  0  0
   27.0421   46.6708    9.6572 H   0  0  0  0  0
   30.8679   48.1108    6.9618 H   0  0  0  0  0
   26.6198   48.3115    7.9311 H   0  0  0  0  0
   27.7999   51.2510    5.5421 H   0  0  0  0  0
   27.8146   52.0514    7.8776 H   0  0  0  0  0
   26.3506   51.1024    8.2257 H   0  0  0  0  0
   26.6051   53.3789    6.2097 H   0  0  0  0  0
   25.7087   53.4140    7.7817 H   0  0  0  0  0
   24.3163   53.1271    5.8309 H   0  0  0  0  0
   24.2141   51.8348    6.9287 H   0  0  0  0  0
   25.6509   51.8907    4.3694 H   0  0  0  0  0
   24.1430   50.9720    4.7588 H   0  0  0  0  0
   25.3713   49.5835    6.3473 H   0  0  0  0  0
   26.2016   49.5363    4.7741 H   0  0  0  0  0
  1  2  1  0  0  0
  2  3  4  0  0  0
  2  7  4  0  0  0
  3  4  4  0  0  0
  4  5  4  0  0  0
  5  6  1  0  0  0
  5  8  4  0  0  0
  7  8  4  0  0  0
  7 10  1  0  0  0
  8  9  1  0  0  0
 10 11  1  0  0  0
 10 12  1  0  0  0
 12 13  1  0  0  0
 13 14  4  0  0  0
 13 15  4  0  0  0
 14 19  4  0  0  0
 15 16  1  0  0  0
 15 17  4  0  0  0
 17 18  4  0  0  0
 18 19  4  0  0  0
 19 20  1  0  0  0
 20 21  4  0  0  0
 20 22  4  0  0  0
 21 24  4  0  0  0
 22 23  4  0  0  0
 23 24  4  0  0  0
 23 25  1  0  0  0
 25 26  1  0  0  0
 25 30  1  0  0  0
 26 27  1  0  0  0
 27 28  1  0  0  0
 28 29  1  0  0  0
 29 30  1  0  0  0
  3 31  1  0  0  0
  4 32  1  0  0  0
 10 33  1  0  0  0
 11 34  1  0  0  0
 11 35  1  0  0  0
 11 36  1  0  0  0
 14 37  1  0  0  0
 16 38  1  0  0  0
 16 39  1  0  0  0
 18 40  1  0  0  0
 21 41  1  0  0  0
 22 42  1  0  0  0
 25 43  1  0  0  0
 26 44  1  0  0  0
 26 45  1  0  0  0
 27 46  1  0  0  0
 27 47  1  0  0  0
 28 48  1  0  0  0
 28 49  1  0  0  0
 29 50  1  0  0  0
 29 51  1  0  0  0
 30 52  1  0  0  0
 30 53  1  0  0  0
M  END
$$$$
