5wep_ligand
  -I-interpret- 

 36 40  0  0  0  0  0  0  0  0999 V2000
   25.4300  -39.8650   21.4260 C   0  0  0  0  0
   24.2710  -35.5840   17.7940 C   0  0  0  0  0
   25.4740  -34.8850   17.7070 C   0  0  0  0  0
   25.2740  -36.4560   21.8200 O   0  0  0  0  0
   24.3680  -36.2140   20.7780 N   0  0  0  0  0
   23.6780  -35.2620   20.7970 O   0  0  0  0  0
   24.2910  -37.1520   19.6790 C   0  0  0  0  0
   24.2500  -36.8590   18.3270 C   0  0  0  0  0
   24.1850  -38.0010   17.6670 N   0  0  0  0  0
   24.1840  -39.0300   18.5670 N   0  0  0  0  0
   24.2510  -38.5260   19.7870 C   0  0  0  0  0
   24.2680  -39.2360   20.9710 C   0  0  0  0  0
   25.4040  -40.5400   22.5690 N   0  0  0  0  0
   24.2570  -40.6120   23.2900 C   0  0  0  0  0
   23.1500  -40.0350   22.9020 N   0  0  0  0  0
   23.1150  -39.3340   21.7440 C   0  0  0  0  0
   22.1430  -40.2880   23.8520 N   0  0  0  0  0
   22.6480  -41.0260   24.8250 C   0  0  0  0  0
   22.0560  -41.4110   25.7790 O   0  0  0  0  0
   23.9850  -41.2650   24.5270 C   0  0  0  0  0
   25.2630  -42.2870   25.5710 Br  0  0  0  0  0
   25.4620  -33.6650   17.2010 N   0  0  0  0  0
   24.3100  -33.0990   16.7790 C   0  0  0  0  0
   23.1640  -33.7050   16.8440 N   0  0  0  0  0
   23.1070  -34.9620   17.3530 C   0  0  0  0  0
   22.1730  -32.8510   16.3310 N   0  0  0  0  0
   22.7440  -31.7130   15.9540 C   0  0  0  0  0
   22.1890  -30.7810   15.4810 O   0  0  0  0  0
   24.1060  -31.8140   16.2160 C   0  0  0  0  0
   25.5020  -30.5030   15.9060 Br  0  0  0  0  0
   26.3511  -39.8019   20.8466 H   0  0  0  0  0
   26.4054  -35.3360   18.0495 H   0  0  0  0  0
   22.1928  -38.8513   21.4205 H   0  0  0  0  0
   21.1801  -39.9558   23.7983 H   0  0  0  0  0
   22.1517  -35.4830   17.4162 H   0  0  0  0  0
   21.1792  -33.0692   16.2600 H   0  0  0  0  0
 12  1  1  0  0  0
  1 13  2  0  0  0
  2  3  1  0  0  0
  8  2  1  0  0  0
  2 25  2  0  0  0
  3 22  2  0  0  0
  5  4  2  0  0  0
  5  6  2  0  0  0
  7  5  1  0  0  0
  7  8  4  0  0  0
 11  7  4  0  0  0
  9  8  4  0  0  0
 10  9  4  0  0  0
 11 10  4  0  0  0
 11 12  1  0  0  0
 12 16  2  0  0  0
 13 14  1  0  0  0
 14 15  1  0  0  0
 14 20  2  0  0  0
 15 16  1  0  0  0
 15 17  1  0  0  0
 17 18  1  0  0  0
 18 19  2  0  0  0
 18 20  1  0  0  0
 20 21  1  0  0  0
 22 23  1  0  0  0
 23 24  1  0  0  0
 23 29  2  0  0  0
 24 25  1  0  0  0
 24 26  1  0  0  0
 26 27  1  0  0  0
 27 28  2  0  0  0
 27 29  1  0  0  0
 29 30  1  0  0  0
  1 31  1  0  0  0
  3 32  1  0  0  0
 16 33  1  0  0  0
 17 34  1  0  0  0
 25 35  1  0  0  0
 26 36  1  0  0  0
M  END
$$$$
