3fvk_ligand
  -I-interpret- 

 37 38  0  0  0  0  0  0  0  0999 V2000
   -3.6690   16.2690   18.6560 O   0  0  0  0  0
   -4.1570   15.2260   18.1780 C   0  0  0  0  0
   -3.4860   14.3940   17.5220 O   0  0  0  0  0
   -5.6300   15.0170   18.3980 C   0  0  0  0  0
   -6.0110   13.7190   17.8370 N   0  3  0  0  0
   -5.8970   15.1290   19.9100 C   0  0  0  0  0
   -7.3580   15.3890   20.2800 C   0  0  0  0  0
   -7.5520   15.4550   21.7960 C   0  0  0  0  0
   -7.9170   16.6530   19.6510 C   0  0  0  0  0
   -9.1080   16.6300   19.2460 O   0  0  0  0  0
   -7.1690   17.6520   19.5570 O   0  0  0  0  0
   -8.1330   14.2700   19.8200 O   0  0  0  0  0
   -8.4680   13.4380   20.9200 C   0  0  0  0  0
   -8.6020   14.4040   22.0830 C   0  0  0  0  0
   -9.7240   12.6260   20.5910 C   0  0  0  0  0
  -10.9830   13.4830   20.6440 C   0  0  0  0  0
  -10.9550   14.5070   19.6420 O   0  0  0  0  0
  -11.0050   14.1530   22.0060 C   0  0  0  0  0
   -9.8860   15.0410   22.0920 O   0  0  0  0  0
   -4.0543   13.6698   17.2496 H   0  0  0  0  0
   -6.2378   15.7682   17.8938 H   0  0  0  0  0
   -5.8097   13.7098   16.8371 H   0  0  0  0  0
   -5.4795   12.9811   18.2989 H   0  0  0  0  0
   -7.0083   13.5652   17.9856 H   0  0  0  0  0
   -5.3203   15.9797   20.2731 H   0  0  0  0  0
   -5.6215   14.1723   20.3538 H   0  0  0  0  0
   -7.8612   16.4461   22.1280 H   0  0  0  0  0
   -6.6247   15.2680   22.3375 H   0  0  0  0  0
   -9.4874   15.7655   19.4202 H   0  0  0  0  0
   -7.7282   12.6762   21.1660 H   0  0  0  0  0
   -8.4874   13.8970   23.0411 H   0  0  0  0  0
   -9.8203   11.8302   21.3296 H   0  0  0  0  0
   -9.6212   12.2309   19.5803 H   0  0  0  0  0
  -11.8589   12.8575   20.4720 H   0  0  0  0  0
  -11.7579   15.0302   19.6982 H   0  0  0  0  0
  -10.9448   13.4006   22.7923 H   0  0  0  0  0
  -11.9333   14.7102   22.1321 H   0  0  0  0  0
  1  2  2  0  0  0
  2  3  1  0  0  0
  2  4  1  0  0  0
  4  5  1  0  0  0
  4  6  1  0  0  0
  6  7  1  0  0  0
  7  8  1  0  0  0
  7  9  1  0  0  0
  7 12  1  0  0  0
  8 14  1  0  0  0
  9 10  1  0  0  0
  9 11  2  0  0  0
 12 13  1  0  0  0
 13 14  1  0  0  0
 13 15  1  0  0  0
 14 19  1  0  0  0
 15 16  1  0  0  0
 16 17  1  0  0  0
 16 18  1  0  0  0
 18 19  1  0  0  0
  3 20  1  0  0  0
  4 21  1  0  0  0
  5 22  1  0  0  0
  5 23  1  0  0  0
  5 24  1  0  0  0
  6 25  1  0  0  0
  6 26  1  0  0  0
  8 27  1  0  0  0
  8 28  1  0  0  0
 10 29  1  0  0  0
 13 30  1  0  0  0
 14 31  1  0  0  0
 15 32  1  0  0  0
 15 33  1  0  0  0
 16 34  1  0  0  0
 17 35  1  0  0  0
 18 36  1  0  0  0
 18 37  1  0  0  0
M  END
$$$$
