### 
### Created by X-TOOL on Wed Jan  1 15:39:38 2020
### 

@<TRIPOS>MOLECULE
6bj2_ligand
  143   143     1     0     0
SMALL
GAST_HUCK


@<TRIPOS>ATOM
      1 N         -28.3260  -28.9810  108.5640 N.4       1 ILE         0.2381
      2 CA        -28.4560  -28.2600  109.8210 C.3       1 ILE         0.0678
      3 C         -27.0830  -27.8380  110.3400 C.2       1 ILE         0.2295
      4 O         -26.1210  -28.5790  110.2090 O.2       1 ILE        -0.3905
      5 CB        -29.1980  -29.1100  110.8730 C.3       1 ILE         0.0164
      6 CG1       -28.6010  -30.5120  110.9530 C.3       1 ILE        -0.0460
      7 CG2       -30.6830  -29.1610  110.5660 C.3       1 ILE        -0.0551
      8 CD1       -29.3060  -31.4180  111.9370 C.3       1 ILE        -0.0647
      9 N         -27.0030  -26.6470  110.9160 N.am      1 PRO        -0.2471
     10 CA        -25.7440  -26.1530  111.4720 C.3       1 PRO         0.1339
     11 C         -25.5070  -26.7550  112.8540 C.2       1 PRO         0.2041
     12 O         -26.2670  -27.6040  113.3450 O.2       1 PRO        -0.3944
     13 CB        -25.9770  -24.6420  111.5420 C.3       1 PRO        -0.0104
     14 CG        -27.4360  -24.5180  111.7980 C.3       1 PRO        -0.0281
     15 CD        -28.0840  -25.6570  111.0430 C.3       1 PRO         0.0371
     16 N         -24.4310  -26.2970  113.4880 N.am      1 LEU        -0.2637
     17 CA        -24.1150  -26.7490  114.8340 C.3       1 LEU         0.1312
     18 C         -25.1300  -26.1700  115.8120 C.2       1 LEU         0.2040
     19 O         -25.4080  -24.9670  115.8010 O.2       1 LEU        -0.3944
     20 CB        -22.6820  -26.3410  115.2160 C.3       1 LEU        -0.0101
     21 CG        -22.1430  -26.9450  116.5120 C.3       1 LEU        -0.0425
     22 CD1       -22.3820  -28.4410  116.5430 C.3       1 LEU        -0.0625
     23 CD2       -20.6500  -26.6450  116.6790 C.3       1 LEU        -0.0625
     24 N         -25.6860  -27.0350  116.6580 N.am      1 THR        -0.2613
     25 CA        -26.8300  -26.6440  117.4770 C.3       1 THR         0.1565
     26 C         -26.4590  -25.5540  118.4740 C.2       1 THR         0.2065
     27 O         -27.0820  -24.4850  118.5100 O.2       1 THR        -0.3943
     28 CB        -27.3900  -27.8630  118.2080 C.3       1 THR         0.0924
     29 OG1       -27.7730  -28.8580  117.2520 O.3       1 THR        -0.3874
     30 CG2       -28.5930  -27.4750  119.0470 C.3       1 THR        -0.0346
     31 N         -25.4430  -25.8070  119.2920 N.am      1 GLU        -0.2635
     32 CA        -24.9930  -24.8750  120.3130 C.3       1 GLU         0.1325
     33 C         -23.5420  -24.4950  120.0600 C.2       1 GLU         0.2040
     34 O         -22.7130  -25.3510  119.7340 O.2       1 GLU        -0.3944
     35 CB        -25.1430  -25.4790  121.7090 C.3       1 GLU        -0.0008
     36 CG        -26.5820  -25.7120  122.1220 C.3       1 GLU         0.0044
     37 CD        -26.6950  -26.3410  123.4920 C.2       1 GLU         0.0350
     38 OE1       -25.6550  -26.7590  124.0420 O.co2     1 GLU        -0.5690
     39 OE2       -27.8240  -26.4170  124.0190 O.co2     1 GLU        -0.5690
     40 N         -23.2460  -23.2070  120.2170 N.am      1 GLU        -0.2636
     41 CA        -21.9270  -22.6500  119.9480 C.3       1 GLU         0.1325
     42 C         -21.2810  -22.1980  121.2470 C.2       1 GLU         0.2040
     43 O         -21.9230  -21.5290  122.0640 O.2       1 GLU        -0.3944
     44 CB        -22.0100  -21.4600  118.9870 C.3       1 GLU        -0.0008
     45 CG        -22.8050  -21.7060  117.7130 C.3       1 GLU         0.0044
     46 CD        -22.1470  -22.6920  116.7760 C.2       1 GLU         0.0350
     47 OE1       -22.0260  -23.8710  117.1470 O.co2     1 GLU        -0.5690
     48 OE2       -21.7580  -22.2890  115.6600 O.co2     1 GLU        -0.5690
     49 N         -20.0110  -22.5520  121.4250 N.am      1 ALA        -0.2640
     50 CA        -19.2240  -21.9720  122.4980 C.3       1 ALA         0.1282
     51 C         -18.9190  -20.5100  122.1830 C.2       1 ALA         0.2036
     52 O         -19.1380  -20.0250  121.0690 O.2       1 ALA        -0.3944
     53 CB        -17.9290  -22.7550  122.7030 C.3       1 ALA        -0.0244
     54 N         -18.4080  -19.8010  123.1810 N.am      1 GLU        -0.2636
     55 CA        -18.0420  -18.4040  123.0190 C.3       1 GLU         0.1324
     56 C         -16.5340  -18.2460  123.1530 C.2       1 GLU         0.2034
     57 O         -15.8150  -19.1720  123.5400 O.2       1 GLU        -0.3944
     58 CB        -18.7710  -17.5160  124.0320 C.3       1 GLU        -0.0008
     59 CG        -18.5120  -17.8750  125.4780 C.3       1 GLU         0.0044
     60 CD        -19.2870  -16.9930  126.4300 C.2       1 GLU         0.0350
     61 OE1       -19.8860  -16.0010  125.9650 O.co2     1 GLU        -0.5690
     62 OE2       -19.3010  -17.2910  127.6420 O.co2     1 GLU        -0.5690
     63 N         -16.0610  -17.0490  122.8290 N.am      1 LEU        -0.2695
     64 CA        -14.6330  -16.7810  122.7850 C.3       1 LEU         0.0946
     65 C         -14.2210  -15.8140  123.8890 C.2       1 LEU         0.0601
     66 O         -14.1180  -16.1940  125.0550 O.co2     1 LEU        -0.5666
     67 CB        -14.2380  -16.2220  121.4170 C.3       1 LEU        -0.0156
     68 CG        -14.1070  -17.1480  120.2020 C.3       1 LEU        -0.0431
     69 CD1       -15.4190  -17.8340  119.8470 C.3       1 LEU        -0.0625
     70 CD2       -13.5890  -16.3520  119.0150 C.3       1 LEU        -0.0625
     71 OXT       -13.9830  -14.6330  123.6370 O.co2     1 LEU        -0.5666
     72 H1        -27.8389  -28.4052  107.8952 H         1 ILE         0.2015
     73 H2        -29.2423  -29.2059  108.2093 H         1 ILE         0.2015
     74 H3        -27.8067  -29.8313  108.7165 H         1 ILE         0.2015
     75 H4        -29.0480  -27.3516  109.6356 H         1 ILE         0.1101
     76 H5        -29.0695  -28.6294  111.8541 H         1 ILE         0.0378
     77 H6        -27.5472  -30.4239  111.2557 H         1 ILE         0.0269
     78 H7        -28.6587  -30.9714  109.9552 H         1 ILE         0.0269
     79 H8        -31.0822  -28.1373  110.5151 H         1 ILE         0.0236
     80 H9        -31.2026  -29.7181  111.3595 H         1 ILE         0.0236
     81 H10       -30.8408  -29.6645  109.6008 H         1 ILE         0.0236
     82 H11       -28.8213  -32.4055  111.9385 H         1 ILE         0.0230
     83 H12       -30.3605  -31.5277  111.6439 H         1 ILE         0.0230
     84 H13       -29.2490  -30.9801  112.9445 H         1 ILE         0.0230
     85 H14       -24.8944  -26.3916  110.8154 H         1 PRO         0.0802
     86 H15       -25.7037  -24.1592  110.5921 H         1 PRO         0.0313
     87 H16       -25.3962  -24.1938  112.3616 H         1 PRO         0.0313
     88 H17       -27.8092  -23.5517  111.4281 H         1 PRO         0.0287
     89 H18       -27.6449  -24.6040  112.8745 H         1 PRO         0.0287
     90 H19       -28.9315  -26.0713  111.6087 H         1 PRO         0.0524
     91 H20       -28.4309  -25.3251  110.0533 H         1 PRO         0.0524
     92 H21       -23.8335  -25.6355  113.0348 H         1 LEU         0.1883
     93 H22       -24.1837  -27.8464  114.8643 H         1 LEU         0.0800
     94 H23       -22.6585  -25.2460  115.3184 H         1 LEU         0.0315
     95 H24       -22.0141  -26.6472  114.3974 H         1 LEU         0.0315
     96 H25       -22.6835  -26.4895  117.3548 H         1 LEU         0.0298
     97 H26       -21.9875  -28.8559  117.4823 H         1 LEU         0.0232
     98 H27       -21.8703  -28.9118  115.6907 H         1 LEU         0.0232
     99 H28       -23.4617  -28.6413  116.4787 H         1 LEU         0.0232
    100 H29       -20.4897  -25.5570  116.6548 H         1 LEU         0.0232
    101 H30       -20.0873  -27.1168  115.8600 H         1 LEU         0.0232
    102 H31       -20.3009  -27.0457  117.6421 H         1 LEU         0.0232
    103 H32       -25.3166  -27.9612  116.7332 H         1 THR         0.1884
    104 H33       -27.6107  -26.2480  116.8109 H         1 THR         0.0826
    105 H34       -26.6115  -28.2747  118.8671 H         1 THR         0.0639
    106 H35       -28.1211  -29.6157  117.7073 H         1 THR         0.2101
    107 H36       -28.9813  -28.3646  119.5646 H         1 THR         0.0257
    108 H37       -29.3757  -27.0591  118.3955 H         1 THR         0.0257
    109 H38       -28.2943  -26.7201  119.7892 H         1 THR         0.0257
    110 H39       -24.9648  -26.6805  119.2010 H         1 GLU         0.1883
    111 H40       -25.6116  -23.9672  120.2566 H         1 GLU         0.0801
    112 H41       -24.6802  -24.7943  122.4349 H         1 GLU         0.0330
    113 H42       -24.6160  -26.4443  121.7279 H         1 GLU         0.0330
    114 H43       -27.0566  -26.3789  121.3872 H         1 GLU         0.0433
    115 H44       -27.1071  -24.7455  122.1330 H         1 GLU         0.0433
    116 H45       -23.9656  -22.5901  120.5358 H         1 GLU         0.1883
    117 H46       -21.3029  -23.4314  119.4899 H         1 GLU         0.0801
    118 H47       -20.9849  -21.1834  118.6995 H         1 GLU         0.0330
    119 H48       -22.4791  -20.6221  119.5236 H         1 GLU         0.0330
    120 H49       -22.9225  -20.7483  117.1849 H         1 GLU         0.0433
    121 H50       -23.7956  -22.0960  117.9899 H         1 GLU         0.0433
    122 H51       -19.5943  -23.2245  120.8134 H         1 ALA         0.1883
    123 H52       -19.8101  -22.0174  123.4278 H         1 ALA         0.0797
    124 H53       -17.3499  -22.2985  123.5192 H         1 ALA         0.0277
    125 H54       -17.3366  -22.7331  121.7764 H         1 ALA         0.0277
    126 H55       -18.1676  -23.7973  122.9611 H         1 ALA         0.0277
    127 H56       -18.2709  -20.2399  124.0690 H         1 GLU         0.1883
    128 H57       -18.3369  -18.0844  122.0086 H         1 GLU         0.0801
    129 H58       -19.8520  -17.5975  123.8457 H         1 GLU         0.0330
    130 H59       -18.4488  -16.4764  123.8727 H         1 GLU         0.0330
    131 H60       -17.4375  -17.7619  125.6847 H         1 GLU         0.0433
    132 H61       -18.8089  -18.9213  125.6425 H         1 GLU         0.0433
    133 H62       -16.7024  -16.3138  122.6099 H         1 LEU         0.1875
    134 H63       -14.0991  -17.7301  122.9404 H         1 LEU         0.0726
    135 H64       -13.2608  -15.7340  121.5470 H         1 LEU         0.0308
    136 H65       -14.9935  -15.4662  121.1562 H         1 LEU         0.0308
    137 H66       -13.3723  -17.9294  120.4460 H         1 LEU         0.0297
    138 H67       -15.2682  -18.4834  118.9721 H         1 LEU         0.0232
    139 H68       -16.1786  -17.0737  119.6126 H         1 LEU         0.0232
    140 H69       -15.7581  -18.4405  120.6997 H         1 LEU         0.0232
    141 H70       -12.6419  -15.8629  119.2867 H         1 LEU         0.0232
    142 H71       -14.3290  -15.5879  118.7348 H         1 LEU         0.0232
    143 H72       -13.4211  -17.0291  118.1645 H         1 LEU         0.0232
@<TRIPOS>BOND
     1    1    2 1  
     2    2    3 1  
     3    2    5 1  
     4    3    4 2  
     5    3    9 am 
     6    5    6 1  
     7    5    7 1  
     8    6    8 1  
     9    9   10 1  
    10    9   15 1  
    11   10   11 1  
    12   10   13 1  
    13   11   12 2  
    14   11   16 am 
    15   13   14 1  
    16   14   15 1  
    17   16   17 1  
    18   17   18 1  
    19   17   20 1  
    20   18   19 2  
    21   18   24 am 
    22   20   21 1  
    23   21   22 1  
    24   21   23 1  
    25   24   25 1  
    26   25   26 1  
    27   25   28 1  
    28   26   27 2  
    29   26   31 am 
    30   28   29 1  
    31   28   30 1  
    32   31   32 1  
    33   32   33 1  
    34   32   35 1  
    35   33   34 2  
    36   33   40 am 
    37   35   36 1  
    38   36   37 1  
    39   37   38 ar 
    40   37   39 ar 
    41   40   41 1  
    42   41   42 1  
    43   41   44 1  
    44   42   43 2  
    45   42   49 am 
    46   44   45 1  
    47   45   46 1  
    48   46   47 ar 
    49   46   48 ar 
    50   49   50 1  
    51   50   51 1  
    52   50   53 1  
    53   51   52 2  
    54   51   54 am 
    55   54   55 1  
    56   55   56 1  
    57   55   58 1  
    58   56   57 2  
    59   56   63 am 
    60   58   59 1  
    61   59   60 1  
    62   60   61 ar 
    63   60   62 ar 
    64   63   64 1  
    65   64   65 1  
    66   64   67 1  
    67   65   66 ar 
    68   65   71 ar 
    69   67   68 1  
    70   68   69 1  
    71   68   70 1  
    72    1   72 1  
    73    1   73 1  
    74    1   74 1  
    75    2   75 1  
    76    5   76 1  
    77    6   77 1  
    78    6   78 1  
    79    7   79 1  
    80    7   80 1  
    81    7   81 1  
    82    8   82 1  
    83    8   83 1  
    84    8   84 1  
    85   10   85 1  
    86   13   86 1  
    87   13   87 1  
    88   14   88 1  
    89   14   89 1  
    90   15   90 1  
    91   15   91 1  
    92   16   92 1  
    93   17   93 1  
    94   20   94 1  
    95   20   95 1  
    96   21   96 1  
    97   22   97 1  
    98   22   98 1  
    99   22   99 1  
   100   23  100 1  
   101   23  101 1  
   102   23  102 1  
   103   24  103 1  
   104   25  104 1  
   105   28  105 1  
   106   29  106 1  
   107   30  107 1  
   108   30  108 1  
   109   30  109 1  
   110   31  110 1  
   111   32  111 1  
   112   35  112 1  
   113   35  113 1  
   114   36  114 1  
   115   36  115 1  
   116   40  116 1  
   117   41  117 1  
   118   44  118 1  
   119   44  119 1  
   120   45  120 1  
   121   45  121 1  
   122   49  122 1  
   123   50  123 1  
   124   53  124 1  
   125   53  125 1  
   126   53  126 1  
   127   54  127 1  
   128   55  128 1  
   129   58  129 1  
   130   58  130 1  
   131   59  131 1  
   132   59  132 1  
   133   63  133 1  
   134   64  134 1  
   135   67  135 1  
   136   67  136 1  
   137   68  137 1  
   138   69  138 1  
   139   69  139 1  
   140   69  140 1  
   141   70  141 1  
   142   70  142 1  
   143   70  143 1  
@<TRIPOS>SUBSTRUCTURE
     1 ILE         1

