6bj2_ligand
  -I-interpret- 

147147  0  0  0  0  0  0  0  0999 V2000
  -28.3260  -28.9810  108.5640 N   0  3  0  0  0
  -28.4560  -28.2600  109.8210 C   0  0  0  0  0
  -27.0830  -27.8380  110.3400 C   0  0  0  0  0
  -26.1210  -28.5790  110.2090 O   0  0  0  0  0
  -29.1980  -29.1100  110.8730 C   0  0  0  0  0
  -28.6010  -30.5120  110.9530 C   0  0  0  0  0
  -30.6830  -29.1610  110.5660 C   0  0  0  0  0
  -29.3060  -31.4180  111.9370 C   0  0  0  0  0
  -27.0030  -26.6470  110.9160 N   0  0  0  0  0
  -25.7440  -26.1530  111.4720 C   0  0  0  0  0
  -25.5070  -26.7550  112.8540 C   0  0  0  0  0
  -26.2670  -27.6040  113.3450 O   0  0  0  0  0
  -25.9770  -24.6420  111.5420 C   0  0  0  0  0
  -27.4360  -24.5180  111.7980 C   0  0  0  0  0
  -28.0840  -25.6570  111.0430 C   0  0  0  0  0
  -24.4310  -26.2970  113.4880 N   0  0  0  0  0
  -24.1150  -26.7490  114.8340 C   0  0  0  0  0
  -25.1300  -26.1700  115.8120 C   0  0  0  0  0
  -25.4080  -24.9670  115.8010 O   0  0  0  0  0
  -22.6820  -26.3410  115.2160 C   0  0  0  0  0
  -22.1430  -26.9450  116.5120 C   0  0  0  0  0
  -22.3820  -28.4410  116.5430 C   0  0  0  0  0
  -20.6500  -26.6450  116.6790 C   0  0  0  0  0
  -25.6860  -27.0350  116.6580 N   0  0  0  0  0
  -26.8300  -26.6440  117.4770 C   0  0  0  0  0
  -26.4590  -25.5540  118.4740 C   0  0  0  0  0
  -27.0820  -24.4850  118.5100 O   0  0  0  0  0
  -27.3900  -27.8630  118.2080 C   0  0  0  0  0
  -27.7730  -28.8580  117.2520 O   0  0  0  0  0
  -28.5930  -27.4750  119.0470 C   0  0  0  0  0
  -25.4430  -25.8070  119.2920 N   0  0  0  0  0
  -24.9930  -24.8750  120.3130 C   0  0  0  0  0
  -23.5420  -24.4950  120.0600 C   0  0  0  0  0
  -22.7130  -25.3510  119.7340 O   0  0  0  0  0
  -25.1430  -25.4790  121.7090 C   0  0  0  0  0
  -26.5820  -25.7120  122.1220 C   0  0  0  0  0
  -26.6950  -26.3410  123.4920 C   0  0  0  0  0
  -25.6550  -26.7590  124.0420 O   0  0  0  0  0
  -27.8240  -26.4170  124.0190 O   0  0  0  0  0
  -23.2460  -23.2070  120.2170 N   0  0  0  0  0
  -21.9270  -22.6500  119.9480 C   0  0  0  0  0
  -21.2810  -22.1980  121.2470 C   0  0  0  0  0
  -21.9230  -21.5290  122.0640 O   0  0  0  0  0
  -22.0100  -21.4600  118.9870 C   0  0  0  0  0
  -22.8050  -21.7060  117.7130 C   0  0  0  0  0
  -22.1470  -22.6920  116.7760 C   0  0  0  0  0
  -22.0260  -23.8710  117.1470 O   0  0  0  0  0
  -21.7580  -22.2890  115.6600 O   0  0  0  0  0
  -20.0110  -22.5520  121.4250 N   0  0  0  0  0
  -19.2240  -21.9720  122.4980 C   0  0  0  0  0
  -18.9190  -20.5100  122.1830 C   0  0  0  0  0
  -19.1380  -20.0250  121.0690 O   0  0  0  0  0
  -17.9290  -22.7550  122.7030 C   0  0  0  0  0
  -18.4080  -19.8010  123.1810 N   0  0  0  0  0
  -18.0420  -18.4040  123.0190 C   0  0  0  0  0
  -16.5340  -18.2460  123.1530 C   0  0  0  0  0
  -15.8150  -19.1720  123.5400 O   0  0  0  0  0
  -18.7710  -17.5160  124.0320 C   0  0  0  0  0
  -18.5120  -17.8750  125.4780 C   0  0  0  0  0
  -19.2870  -16.9930  126.4300 C   0  0  0  0  0
  -19.8860  -16.0010  125.9650 O   0  0  0  0  0
  -19.3010  -17.2910  127.6420 O   0  0  0  0  0
  -16.0610  -17.0490  122.8290 N   0  0  0  0  0
  -14.6330  -16.7810  122.7850 C   0  0  0  0  0
  -14.2210  -15.8140  123.8890 C   0  0  0  0  0
  -14.1180  -16.1940  125.0550 O   0  0  0  0  0
  -14.2380  -16.2220  121.4170 C   0  0  0  0  0
  -14.1070  -17.1480  120.2020 C   0  0  0  0  0
  -15.4190  -17.8340  119.8470 C   0  0  0  0  0
  -13.5890  -16.3520  119.0150 C   0  0  0  0  0
  -13.9830  -14.6330  123.6370 O   0  0  0  0  0
  -27.8330  -28.3975  107.8881 H   0  0  0  0  0
  -27.8004  -29.8412  108.7196 H   0  0  0  0  0
  -29.2538  -29.2080  108.2061 H   0  0  0  0  0
  -29.0470  -27.3628  109.6372 H   0  0  0  0  0
  -29.0731  -28.6394  111.8482 H   0  0  0  0  0
  -27.5689  -30.4080  111.2877 H   0  0  0  0  0
  -28.6984  -30.9644  109.9661 H   0  0  0  0  0
  -30.8380  -29.6601  109.6095 H   0  0  0  0  0
  -31.1966  -29.7133  111.3529 H   0  0  0  0  0
  -31.0774  -28.1461  110.5159 H   0  0  0  0  0
  -29.2488  -30.9830  112.9348 H   0  0  0  0  0
  -30.3508  -31.5258  111.6455 H   0  0  0  0  0
  -28.8248  -32.3961  111.9375 H   0  0  0  0  0
  -24.8632  -26.4147  110.8856 H   0  0  0  0  0
  -25.6720  -24.1329  110.6277 H   0  0  0  0  0
  -25.3781  -24.1659  112.3184 H   0  0  0  0  0
  -27.8169  -23.5529  111.4640 H   0  0  0  0  0
  -27.6579  -24.5713  112.8638 H   0  0  0  0  0
  -28.9567  -26.0566  111.5596 H   0  0  0  0  0
  -28.4792  -25.3449  110.0763 H   0  0  0  0  0
  -23.8215  -25.6222  113.0258 H   0  0  0  0  0
  -24.1700  -27.8369  114.8740 H   0  0  0  0  0
  -22.6977  -25.2610  115.3624 H   0  0  0  0  0
  -22.0353  -26.7010  114.4158 H   0  0  0  0  0
  -22.6796  -26.4870  117.3429 H   0  0  0  0  0
  -23.4521  -28.6381  116.4791 H   0  0  0  0  0
  -21.8745  -28.9063  115.6980 H   0  0  0  0  0
  -21.9907  -28.8509  117.4741 H   0  0  0  0  0
  -20.0993  -27.0695  115.8396 H   0  0  0  0  0
  -20.4984  -25.5659  116.7063 H   0  0  0  0  0
  -20.2938  -27.0869  117.6096 H   0  0  0  0  0
  -25.3092  -27.9797  116.7347 H   0  0  0  0  0
  -27.5947  -26.2387  116.8144 H   0  0  0  0  0
  -26.6189  -28.2618  118.8671 H   0  0  0  0  0
  -28.1248  -29.6236  117.7121 H   0  0  0  0  0
  -28.2957  -26.7270  119.7820 H   0  0  0  0  0
  -29.3677  -27.0630  118.4003 H   0  0  0  0  0
  -28.9768  -28.3572  119.5594 H   0  0  0  0  0
  -24.9553  -26.6980  119.1992 H   0  0  0  0  0
  -25.6141  -23.9807  120.2621 H   0  0  0  0  0
  -24.7115  -24.7720  122.4175 H   0  0  0  0  0
  -24.6462  -26.4492  121.6989 H   0  0  0  0  0
  -27.0334  -26.3930  121.4005 H   0  0  0  0  0
  -27.0843  -24.7451  122.1528 H   0  0  0  0  0
  -24.9039  -26.6018  123.4651 H   0  0  0  0  0
  -23.9800  -22.5778  120.5422 H   0  0  0  0  0
  -21.3243  -23.4303  119.4832 H   0  0  0  0  0
  -20.9887  -21.2363  118.6789 H   0  0  0  0  0
  -22.5209  -20.6607  119.5239 H   0  0  0  0  0
  -22.8843  -20.7550  117.1864 H   0  0  0  0  0
  -23.7699  -22.1220  118.0030 H   0  0  0  0  0
  -21.9462  -21.3514  115.5762 H   0  0  0  0  0
  -19.5860  -23.2380  120.8011 H   0  0  0  0  0
  -19.7999  -22.0239  123.4220 H   0  0  0  0  0
  -18.1668  -23.7876  122.9587 H   0  0  0  0  0
  -17.3430  -22.7326  121.7842 H   0  0  0  0  0
  -17.3561  -22.3018  123.5120 H   0  0  0  0  0
  -18.2682  -20.2486  124.0868 H   0  0  0  0  0
  -18.3462  -18.0826  122.0229 H   0  0  0  0  0
  -19.8395  -17.6425  123.8575 H   0  0  0  0  0
  -18.4080  -16.4988  123.8851 H   0  0  0  0  0
  -17.4490  -17.7389  125.6771 H   0  0  0  0  0
  -18.8294  -18.9059  125.6346 H   0  0  0  0  0
  -19.7438  -15.9584  125.0165 H   0  0  0  0  0
  -16.7153  -16.2991  122.6055 H   0  0  0  0  0
  -14.1087  -17.7229  122.9465 H   0  0  0  0  0
  -13.2303  -15.8349  121.5676 H   0  0  0  0  0
  -15.0574  -15.5525  121.1554 H   0  0  0  0  0
  -13.4004  -17.9368  120.4602 H   0  0  0  0  0
  -15.7539  -18.4346  120.6927 H   0  0  0  0  0
  -16.1708  -17.0796  119.6151 H   0  0  0  0  0
  -15.2683  -18.4772  118.9800 H   0  0  0  0  0
  -14.2873  -15.5468  118.7865 H   0  0  0  0  0
  -12.6139  -15.9306  119.2594 H   0  0  0  0  0
  -13.4957  -17.0098  118.1509 H   0  0  0  0  0
  -14.1017  -14.4773  122.6972 H   0  0  0  0  0
  1  2  1  0  0  0
  2  3  1  0  0  0
  2  5  1  0  0  0
  3  4  2  0  0  0
  3  9  1  0  0  0
  5  6  1  0  0  0
  5  7  1  0  0  0
  6  8  1  0  0  0
  9 10  1  0  0  0
  9 15  1  0  0  0
 10 11  1  0  0  0
 10 13  1  0  0  0
 11 12  2  0  0  0
 11 16  1  0  0  0
 13 14  1  0  0  0
 14 15  1  0  0  0
 16 17  1  0  0  0
 17 18  1  0  0  0
 17 20  1  0  0  0
 18 19  2  0  0  0
 18 24  1  0  0  0
 20 21  1  0  0  0
 21 22  1  0  0  0
 21 23  1  0  0  0
 24 25  1  0  0  0
 25 26  1  0  0  0
 25 28  1  0  0  0
 26 27  2  0  0  0
 26 31  1  0  0  0
 28 29  1  0  0  0
 28 30  1  0  0  0
 31 32  1  0  0  0
 32 33  1  0  0  0
 32 35  1  0  0  0
 33 34  2  0  0  0
 33 40  1  0  0  0
 35 36  1  0  0  0
 36 37  1  0  0  0
 37 38  1  0  0  0
 37 39  2  0  0  0
 40 41  1  0  0  0
 41 42  1  0  0  0
 41 44  1  0  0  0
 42 43  2  0  0  0
 42 49  1  0  0  0
 44 45  1  0  0  0
 45 46  1  0  0  0
 46 47  2  0  0  0
 46 48  1  0  0  0
 49 50  1  0  0  0
 50 51  1  0  0  0
 50 53  1  0  0  0
 51 52  2  0  0  0
 51 54  1  0  0  0
 54 55  1  0  0  0
 55 56  1  0  0  0
 55 58  1  0  0  0
 56 57  2  0  0  0
 56 63  1  0  0  0
 58 59  1  0  0  0
 59 60  1  0  0  0
 60 61  1  0  0  0
 60 62  2  0  0  0
 63 64  1  0  0  0
 64 65  1  0  0  0
 64 67  1  0  0  0
 65 66  2  0  0  0
 65 71  1  0  0  0
 67 68  1  0  0  0
 68 69  1  0  0  0
 68 70  1  0  0  0
  1 72  1  0  0  0
  1 73  1  0  0  0
  1 74  1  0  0  0
  2 75  1  0  0  0
  5 76  1  0  0  0
  6 77  1  0  0  0
  6 78  1  0  0  0
  7 79  1  0  0  0
  7 80  1  0  0  0
  7 81  1  0  0  0
  8 82  1  0  0  0
  8 83  1  0  0  0
  8 84  1  0  0  0
 10 85  1  0  0  0
 13 86  1  0  0  0
 13 87  1  0  0  0
 14 88  1  0  0  0
 14 89  1  0  0  0
 15 90  1  0  0  0
 15 91  1  0  0  0
 16 92  1  0  0  0
 17 93  1  0  0  0
 20 94  1  0  0  0
 20 95  1  0  0  0
 21 96  1  0  0  0
 22 97  1  0  0  0
 22 98  1  0  0  0
 22 99  1  0  0  0
 23100  1  0  0  0
 23101  1  0  0  0
 23102  1  0  0  0
 24103  1  0  0  0
 25104  1  0  0  0
 28105  1  0  0  0
 29106  1  0  0  0
 30107  1  0  0  0
 30108  1  0  0  0
 30109  1  0  0  0
 31110  1  0  0  0
 32111  1  0  0  0
 35112  1  0  0  0
 35113  1  0  0  0
 36114  1  0  0  0
 36115  1  0  0  0
 38116  1  0  0  0
 40117  1  0  0  0
 41118  1  0  0  0
 44119  1  0  0  0
 44120  1  0  0  0
 45121  1  0  0  0
 45122  1  0  0  0
 48123  1  0  0  0
 49124  1  0  0  0
 50125  1  0  0  0
 53126  1  0  0  0
 53127  1  0  0  0
 53128  1  0  0  0
 54129  1  0  0  0
 55130  1  0  0  0
 58131  1  0  0  0
 58132  1  0  0  0
 59133  1  0  0  0
 59134  1  0  0  0
 61135  1  0  0  0
 63136  1  0  0  0
 64137  1  0  0  0
 67138  1  0  0  0
 67139  1  0  0  0
 68140  1  0  0  0
 69141  1  0  0  0
 69142  1  0  0  0
 69143  1  0  0  0
 70144  1  0  0  0
 70145  1  0  0  0
 70146  1  0  0  0
 71147  1  0  0  0
M  END
$$$$
