4wnm_ligand
  -I-interpret- 

 61 66  0  0  0  0  0  0  0  0999 V2000
   -3.1690   -1.8010   13.0340 C   0  0  0  0  0
   -4.4660    0.2010   15.9800 C   0  0  0  0  0
   -4.0970   -1.2400   14.0800 C   0  0  0  0  0
   -5.4120   -1.6690   14.1360 C   0  0  0  0  0
   -6.2690   -1.1690   15.1170 C   0  0  0  0  0
   -5.7970   -0.2470   16.0420 C   0  0  0  0  0
   -3.6180   -0.2880   15.0200 N   0  0  0  0  0
   -3.7960    1.0560   16.6950 N   0  0  0  0  0
   -2.5050    0.2600   15.1640 N   0  0  0  0  0
    8.5960    0.9280   14.9580 O   0  0  0  0  0
   -2.5600    1.1050   16.1990 C   0  0  0  0  0
   -0.2770    1.8040   16.1890 C   0  0  0  0  0
    0.6430    2.8000   16.5120 C   0  0  0  0  0
    1.9300    2.7630   15.9690 C   0  0  0  0  0
    2.3010    1.7230   15.1340 C   0  0  0  0  0
    1.4260    0.7390   14.8220 C   0  0  0  0  0
    0.1160    0.7570   15.3490 C   0  0  0  0  0
    3.4650    1.4260   14.4780 C   0  0  0  0  0
    5.8850    1.5730   14.0880 C   0  0  0  0  0
   -1.1710   -5.5440   13.5440 O   0  0  0  0  0
   -3.1800   -4.1630   13.8330 C   0  0  0  0  0
   -2.3170   -5.2640   14.4230 C   0  0  0  0  0
   -0.3490   -4.4010   13.3750 C   0  0  0  0  0
   -1.1640   -3.2940   12.7210 C   0  0  0  0  0
   -2.3260   -2.9420   13.6400 C   0  0  0  0  0
   -1.5260    1.8680   16.7010 N   0  0  0  0  0
    2.0750   -0.1260   13.9900 N   0  0  0  0  0
    3.2640    0.2730   13.8000 N   0  0  0  0  0
    4.5940    2.1580   14.4950 N   0  0  0  0  0
    6.9920    2.6550   14.1900 C   0  0  0  0  0
    8.3800    2.0110   13.9820 C   0  0  0  0  0
    7.6560   -0.1300   14.7180 C   0  0  0  0  0
    6.2270    0.3820   15.0200 C   0  0  0  0  0
   -2.5056   -1.0117   12.6806 H   0  0  0  0  0
   -3.7567   -2.1900   12.2025 H   0  0  0  0  0
   -5.7782   -2.3980   13.4131 H   0  0  0  0  0
   -7.3064   -1.5012   15.1572 H   0  0  0  0  0
   -6.4613    0.1308   16.8192 H   0  0  0  0  0
    0.3588    3.6069   17.1875 H   0  0  0  0  0
    2.6426    3.5539   16.2031 H   0  0  0  0  0
   -0.5849   -0.0405   15.1025 H   0  0  0  0  0
    5.8210    1.2174   13.0596 H   0  0  0  0  0
   -4.0071   -3.9368   14.5059 H   0  0  0  0  0
   -3.5920   -4.4846   12.8765 H   0  0  0  0  0
   -1.9473   -4.9421   15.3966 H   0  0  0  0  0
   -2.9162   -6.1689   14.5243 H   0  0  0  0  0
    0.5026   -4.6519   12.7427 H   0  0  0  0  0
    0.0148   -4.0641   14.3457 H   0  0  0  0  0
   -1.5419   -3.6309   11.7557 H   0  0  0  0  0
   -0.5378   -2.4164   12.5602 H   0  0  0  0  0
   -1.9366   -2.6053   14.6008 H   0  0  0  0  0
   -1.7096    2.4988   17.4813 H   0  0  0  0  0
    4.5562    3.1325   14.7940 H   0  0  0  0  0
    6.9542    3.1150   15.1775 H   0  0  0  0  0
    6.8278    3.4099   13.4210 H   0  0  0  0  0
    8.4316    1.5967   12.9751 H   0  0  0  0  0
    9.1484    2.7717   14.1202 H   0  0  0  0  0
    7.8855   -0.9773   15.3641 H   0  0  0  0  0
    7.7191   -0.4467   13.6769 H   0  0  0  0  0
    5.5130   -0.4239   14.8501 H   0  0  0  0  0
    6.1750    0.7112   16.0578 H   0  0  0  0  0
  3  1  1  0  0  0
  1 25  1  0  0  0
  2  6  4  0  0  0
  7  2  4  0  0  0
  8  2  4  0  0  0
  3  4  4  0  0  0
  7  3  4  0  0  0
  4  5  4  0  0  0
  6  5  4  0  0  0
  9  7  4  0  0  0
 11  8  4  0  0  0
 11  9  4  0  0  0
 31 10  1  0  0  0
 10 32  1  0  0  0
 26 11  1  0  0  0
 13 12  4  0  0  0
 17 12  4  0  0  0
 12 26  1  0  0  0
 14 13  4  0  0  0
 15 14  4  0  0  0
 15 16  4  0  0  0
 18 15  4  0  0  0
 16 17  4  0  0  0
 27 16  4  0  0  0
 18 28  4  0  0  0
 29 18  1  0  0  0
 19 29  1  0  0  0
 30 19  1  0  0  0
 19 33  1  0  0  0
 22 20  1  0  0  0
 23 20  1  0  0  0
 21 22  1  0  0  0
 25 21  1  0  0  0
 24 23  1  0  0  0
 25 24  1  0  0  0
 28 27  4  0  0  0
 30 31  1  0  0  0
 32 33  1  0  0  0
  1 34  1  0  0  0
  1 35  1  0  0  0
  4 36  1  0  0  0
  5 37  1  0  0  0
  6 38  1  0  0  0
 13 39  1  0  0  0
 14 40  1  0  0  0
 17 41  1  0  0  0
 19 42  1  0  0  0
 21 43  1  0  0  0
 21 44  1  0  0  0
 22 45  1  0  0  0
 22 46  1  0  0  0
 23 47  1  0  0  0
 23 48  1  0  0  0
 24 49  1  0  0  0
 24 50  1  0  0  0
 25 51  1  0  0  0
 26 52  1  0  0  0
 29 53  1  0  0  0
 30 54  1  0  0  0
 30 55  1  0  0  0
 31 56  1  0  0  0
 31 57  1  0  0  0
 32 58  1  0  0  0
 32 59  1  0  0  0
 33 60  1  0  0  0
 33 61  1  0  0  0
M  END
$$$$
