3bys_ligand
  -I-interpret- 

 74 78  0  0  0  0  0  0  0  0999 V2000
   15.8440   -2.0780   42.6210 C   0  0  0  0  0
   15.2730   -1.1080   41.7380 C   0  0  0  0  0
   16.1100   -0.3910   40.7610 C   0  0  0  0  0
   15.6140    0.5960   39.7630 C   0  0  0  0  0
   14.3510    1.0020   40.0750 N   0  0  0  0  0
   13.5200    1.7080   39.2520 C   0  0  0  0  0
   12.3290    2.2830   39.8380 C   0  0  0  0  0
   11.3610    3.0710   39.0830 C   0  0  0  0  0
   11.5980    3.2830   37.6900 C   0  0  0  0  0
   12.7880    2.7060   37.0800 C   0  0  0  0  0
   13.7600    1.9160   37.8550 C   0  0  0  0  0
   13.0720    2.8560   35.6060 C   0  0  0  0  0
   13.5270    1.6570   35.1850 F   0  0  0  0  0
   14.0050    3.7700   35.5280 F   0  0  0  0  0
   12.0700    3.2460   34.8320 F   0  0  0  0  0
   17.5030   -0.5960   40.6450 C   0  0  0  0  0
   18.0360   -1.5420   41.5160 C   0  0  0  0  0
   17.2430   -2.2750   42.4770 C   0  0  0  0  0
   17.8590   -3.2860   43.3430 C   0  0  0  0  0
   22.9890   -3.2910   38.6360 N   0  0  0  0  0
   21.6720   -3.1870   38.9830 C   0  0  0  0  0
   21.2520   -2.4670   40.1590 C   0  0  0  0  0
   22.3000   -1.8680   40.9400 C   0  0  0  0  0
   23.5710   -1.9970   40.5640 N   0  0  0  0  0
   23.9290   -2.6980   39.4220 C   0  0  0  0  0
   19.9180   -2.4170   40.4800 N   0  0  0  0  0
   19.4110   -1.7140   41.4870 C   0  0  0  0  0
   20.0610   -1.2060   42.3950 O   0  0  0  0  0
   25.2690   -2.8020   39.0330 N   0  0  0  0  0
   27.2200   -0.0210   40.5300 C   0  0  0  0  0
   28.5010   -0.6770   40.4930 C   0  0  0  0  0
   28.7520   -2.0170   39.9880 C   0  0  0  0  0
   27.6450   -2.7460   39.4850 C   0  0  0  0  0
   26.3470   -2.1070   39.5120 C   0  0  0  0  0
   26.1460   -0.7600   40.0290 C   0  0  0  0  0
   30.6470    0.6910   43.0410 C   0  0  0  0  0
   31.9210    0.4930   42.3310 N   0  3  0  0  0
   31.9460   -0.5240   41.2810 C   0  0  0  0  0
   30.8910   -0.2190   40.2410 C   0  0  0  0  0
   29.5880   -0.0570   40.9240 N   0  0  0  0  0
   29.4890    0.8090   42.0850 C   0  0  0  0  0
   32.8630   -0.0860   43.2830 C   0  0  0  0  0
   16.3190    1.0250   38.8360 O   0  0  0  0  0
   15.2485   -2.6260   43.3512 H   0  0  0  0  0
   14.2049   -0.8969   41.7889 H   0  0  0  0  0
   13.9967    0.7585   41.0000 H   0  0  0  0  0
   12.1452    2.1188   40.8998 H   0  0  0  0  0
   10.4790    3.4876   39.5694 H   0  0  0  0  0
   10.8985    3.8679   37.0927 H   0  0  0  0  0
   14.6447    1.4978   37.3750 H   0  0  0  0  0
   18.1159   -0.0528   39.9257 H   0  0  0  0  0
   17.7041   -3.0118   44.3865 H   0  0  0  0  0
   17.4015   -4.2561   43.1491 H   0  0  0  0  0
   18.9276   -3.3387   43.1346 H   0  0  0  0  0
   20.9186   -3.6611   38.3539 H   0  0  0  0  0
   22.0537   -1.3072   41.8416 H   0  0  0  0  0
   19.2711   -2.9572   39.9054 H   0  0  0  0  0
   25.4681   -3.4820   38.2993 H   0  0  0  0  0
   27.0963    0.9878   40.9238 H   0  0  0  0  0
   29.7543   -2.4453   39.9958 H   0  0  0  0  0
   27.7676   -3.7548   39.0908 H   0  0  0  0  0
   25.1469   -0.3243   40.0248 H   0  0  0  0  0
   30.7138    1.6151   43.6152 H   0  0  0  0  0
   30.4747   -0.1718   43.6844 H   0  0  0  0  0
   32.1154    1.4112   41.9316 H   0  0  0  0  0
   31.7435   -1.5000   41.7220 H   0  0  0  0  0
   32.9274   -0.5260   40.8067 H   0  0  0  0  0
   30.8335   -1.0347   39.5203 H   0  0  0  0  0
   31.1478    0.6972   39.7092 H   0  0  0  0  0
   29.4750    1.8362   41.7208 H   0  0  0  0  0
   28.5907    0.5173   42.6291 H   0  0  0  0  0
   32.9945    0.5963   44.1228 H   0  0  0  0  0
   32.4737   -1.0379   43.6441 H   0  0  0  0  0
   33.8220   -0.2474   42.7908 H   0  0  0  0  0
  1  2  4  0  0  0
 18  1  4  0  0  0
  3  2  4  0  0  0
  3  4  1  0  0  0
 16  3  4  0  0  0
  4  5  1  0  0  0
  4 43  2  0  0  0
  5  6  1  0  0  0
  6  7  4  0  0  0
  6 11  4  0  0  0
  7  8  4  0  0  0
  8  9  4  0  0  0
 10  9  4  0  0  0
 11 10  4  0  0  0
 10 12  1  0  0  0
 12 13  1  0  0  0
 12 14  1  0  0  0
 12 15  1  0  0  0
 17 16  4  0  0  0
 17 18  4  0  0  0
 27 17  1  0  0  0
 18 19  1  0  0  0
 20 21  4  0  0  0
 25 20  4  0  0  0
 21 22  4  0  0  0
 23 22  4  0  0  0
 22 26  1  0  0  0
 24 23  4  0  0  0
 25 24  4  0  0  0
 29 25  1  0  0  0
 26 27  1  0  0  0
 27 28  2  0  0  0
 34 29  1  0  0  0
 31 30  4  0  0  0
 30 35  4  0  0  0
 31 32  4  0  0  0
 40 31  1  0  0  0
 32 33  4  0  0  0
 33 34  4  0  0  0
 35 34  4  0  0  0
 37 36  1  0  0  0
 36 41  1  0  0  0
 38 37  1  0  0  0
 37 42  1  0  0  0
 39 38  1  0  0  0
 39 40  1  0  0  0
 40 41  1  0  0  0
  1 44  1  0  0  0
  2 45  1  0  0  0
  5 46  1  0  0  0
  7 47  1  0  0  0
  8 48  1  0  0  0
  9 49  1  0  0  0
 11 50  1  0  0  0
 16 51  1  0  0  0
 19 52  1  0  0  0
 19 53  1  0  0  0
 19 54  1  0  0  0
 21 55  1  0  0  0
 23 56  1  0  0  0
 26 57  1  0  0  0
 29 58  1  0  0  0
 30 59  1  0  0  0
 32 60  1  0  0  0
 33 61  1  0  0  0
 35 62  1  0  0  0
 36 63  1  0  0  0
 36 64  1  0  0  0
 37 65  1  0  0  0
 38 66  1  0  0  0
 38 67  1  0  0  0
 39 68  1  0  0  0
 39 69  1  0  0  0
 41 70  1  0  0  0
 41 71  1  0  0  0
 42 72  1  0  0  0
 42 73  1  0  0  0
 42 74  1  0  0  0
M  END
$$$$
