4jlj_ligand
  -I-interpret- 

 45 47  0  0  0  0  0  0  0  0999 V2000
  -35.9100    8.4440    2.0140 F   0  0  0  0  0
  -36.4120    8.0900    0.5490 C   0  0  0  0  0
  -35.8030    9.0180   -0.5170 C   0  0  0  0  0
  -36.7030    9.0820   -1.6540 O   0  0  0  0  0
  -36.4710   10.0710   -2.5640 C   0  0  0  0  0
  -35.1850   10.4850   -2.9530 C   0  0  0  0  0
  -37.6160   10.6490   -3.1250 C   0  0  0  0  0
  -38.8160   10.1820   -2.7070 O   0  0  0  0  0
  -39.8940   10.8620   -3.3820 C   0  0  0  0  0
  -37.5220   11.6630   -4.0700 C   0  0  0  0  0
  -36.2490   12.0870   -4.4420 C   0  0  0  0  0
  -35.0940   11.5060   -3.9010 C   0  0  0  0  0
  -33.9400   12.0090   -4.3180 C   0  0  0  0  0
  -32.7530   11.8760   -3.7250 N   0  0  0  0  0
  -33.7910   12.9730   -5.6440 S   0  0  0  0  0
  -32.1390   13.2200   -5.4650 C   0  0  0  0  0
  -31.7700   12.5410   -4.3680 C   0  0  0  0  0
  -30.3100   12.5150   -3.8740 C   0  0  0  0  0
  -29.4760   10.9250   -4.2650 S   0  0  0  0  0
  -27.7830   11.2900   -4.1340 C   0  0  0  0  0
  -26.9000   10.2650   -4.2370 N   0  0  0  0  0
  -27.3620   12.5660   -3.9650 N   0  0  0  0  0
  -26.0600   12.8160   -3.8850 C   0  0  0  0  0
  -25.6720   14.0660   -3.7360 N   0  0  0  0  0
  -25.1240   11.7680   -3.9700 C   0  0  0  0  0
  -25.5900   10.4680   -4.1490 C   0  0  0  0  0
  -24.7310    9.4440   -4.2640 N   0  0  0  0  0
  -37.4950    8.2111    0.5241 H   0  0  0  0  0
  -36.1048    7.0687    0.3237 H   0  0  0  0  0
  -34.8353    8.6295   -0.8344 H   0  0  0  0  0
  -35.6635   10.0157   -0.1008 H   0  0  0  0  0
  -34.2916   10.0257   -2.5300 H   0  0  0  0  0
  -39.8383   11.9295   -3.1690 H   0  0  0  0  0
  -39.8081   10.6996   -4.4564 H   0  0  0  0  0
  -40.8474   10.4690   -3.0289 H   0  0  0  0  0
  -38.4148   12.1116   -4.5056 H   0  0  0  0  0
  -36.1483   12.8904   -5.1718 H   0  0  0  0  0
  -31.4941   13.8145   -6.1122 H   0  0  0  0  0
  -30.3153   12.6388   -2.7911 H   0  0  0  0  0
  -29.7671   13.3160   -4.3757 H   0  0  0  0  0
  -26.3652   14.8125   -3.6849 H   0  0  0  0  0
  -24.6784   14.2874   -3.6717 H   0  0  0  0  0
  -24.0554   11.9701   -3.8971 H   0  0  0  0  0
  -25.0819    8.4991   -4.4205 H   0  0  0  0  0
  -23.7270    9.6103   -4.1950 H   0  0  0  0  0
  1  2  1  0  0  0
  2  3  1  0  0  0
  3  4  1  0  0  0
  4  5  1  0  0  0
  5  6  4  0  0  0
  5  7  4  0  0  0
  6 12  4  0  0  0
  7  8  1  0  0  0
  7 10  4  0  0  0
  8  9  1  0  0  0
 10 11  4  0  0  0
 11 12  4  0  0  0
 12 13  1  0  0  0
 13 14  4  0  0  0
 13 15  4  0  0  0
 14 17  4  0  0  0
 15 16  4  0  0  0
 16 17  4  0  0  0
 17 18  1  0  0  0
 18 19  1  0  0  0
 19 20  1  0  0  0
 20 21  4  0  0  0
 20 22  4  0  0  0
 21 26  4  0  0  0
 22 23  4  0  0  0
 23 24  1  0  0  0
 23 25  4  0  0  0
 25 26  4  0  0  0
 26 27  1  0  0  0
  2 28  1  0  0  0
  2 29  1  0  0  0
  3 30  1  0  0  0
  3 31  1  0  0  0
  6 32  1  0  0  0
  9 33  1  0  0  0
  9 34  1  0  0  0
  9 35  1  0  0  0
 10 36  1  0  0  0
 11 37  1  0  0  0
 16 38  1  0  0  0
 18 39  1  0  0  0
 18 40  1  0  0  0
 24 41  1  0  0  0
 24 42  1  0  0  0
 25 43  1  0  0  0
 27 44  1  0  0  0
 27 45  1  0  0  0
M  END
$$$$
