2pzy_ligand
  -I-interpret- 

 55 58  0  0  0  0  0  0  0  0999 V2000
   36.6870  -31.0270  -19.5880 C   0  0  0  0  0
   37.9710  -30.4040  -19.5700 C   0  0  0  0  0
   39.0250  -30.9550  -18.8460 C   0  0  0  0  0
   38.8060  -32.1720  -18.1140 C   0  0  0  0  0
   37.5600  -32.7860  -18.1220 C   0  0  0  0  0
   36.4920  -32.2240  -18.8540 C   0  0  0  0  0
   40.4180  -30.5860  -18.6200 C   0  0  0  0  0
   40.9350  -31.5860  -17.7930 C   0  0  0  0  0
   39.9940  -32.4980  -17.5040 N   0  0  0  0  0
   41.2930  -29.4020  -19.1040 C   0  0  0  0  0
   42.4990  -29.2070  -18.1170 C   0  0  0  0  0
   42.9730  -30.4850  -17.5070 N   0  0  0  0  0
   42.2340  -31.6200  -17.3500 C   0  0  0  0  0
   42.6660  -32.6440  -16.8500 O   0  0  0  0  0
   35.6220  -30.3940  -20.3670 C   0  0  0  0  0
   34.4540  -30.5760  -20.0470 O   0  0  0  0  0
   36.0160  -29.6260  -21.4190 N   0  0  0  0  0
   35.1420  -28.8770  -22.3540 C   0  0  0  0  0
   33.4710  -29.1760  -22.5270 S   0  0  0  0  0
   33.3190  -27.9620  -23.7050 C   0  0  0  0  0
   34.5540  -27.3210  -23.9710 C   0  0  0  0  0
   35.5390  -27.8690  -23.1910 N   0  0  0  0  0
   34.7800  -26.2780  -24.8880 C   0  0  0  0  0
   36.0930  -26.0350  -25.1970 N   0  0  0  0  0
   33.8330  -25.6370  -25.3720 O   0  0  0  0  0
   36.4750  -24.9700  -26.1500 C   0  0  0  0  0
   38.0180  -24.7250  -26.2130 C   0  0  0  0  0
   38.6310  -24.5280  -27.5780 N   0  3  0  0  0
   39.9080  -23.8010  -27.4840 C   0  0  0  0  0
   37.7420  -23.7980  -28.5290 C   0  0  0  0  0
   40.5320  -28.0650  -19.1550 C   0  0  0  0  0
   38.1288  -29.4831  -20.1314 H   0  0  0  0  0
   37.4062  -33.7071  -17.5598 H   0  0  0  0  0
   35.5167  -32.7107  -18.8549 H   0  0  0  0  0
   41.6167  -29.6564  -20.1133 H   0  0  0  0  0
   42.1617  -28.5598  -17.3074 H   0  0  0  0  0
   43.3273  -28.7860  -18.6869 H   0  0  0  0  0
   43.9380  -30.5112  -17.1776 H   0  0  0  0  0
   37.0206  -29.5582  -21.5820 H   0  0  0  0  0
   32.3813  -27.7061  -24.1984 H   0  0  0  0  0
   36.8217  -26.6001  -24.7609 H   0  0  0  0  0
   36.0067  -24.0441  -25.8160 H   0  0  0  0  0
   36.1491  -25.2820  -27.1423 H   0  0  0  0  0
   38.4773  -25.6277  -25.8103 H   0  0  0  0  0
   38.1916  -23.7937  -25.6738 H   0  0  0  0  0
   38.7795  -25.4687  -27.9434 H   0  0  0  0  0
   39.7358  -22.8235  -27.0335 H   0  0  0  0  0
   40.6037  -24.3695  -26.8668 H   0  0  0  0  0
   40.3265  -23.6737  -28.4824 H   0  0  0  0  0
   36.8172  -24.3590  -28.6633 H   0  0  0  0  0
   37.5145  -22.8108  -28.1267 H   0  0  0  0  0
   38.2474  -23.6929  -29.4890 H   0  0  0  0  0
   39.6895  -28.1539  -19.8409 H   0  0  0  0  0
   40.1662  -27.8183  -18.1583 H   0  0  0  0  0
   41.2032  -27.2793  -19.5018 H   0  0  0  0  0
  1  2  4  0  0  0
  1  6  4  0  0  0
  1 15  1  0  0  0
  2  3  4  0  0  0
  3  4  4  0  0  0
  3  7  4  0  0  0
  4  5  4  0  0  0
  4  9  4  0  0  0
  5  6  4  0  0  0
  7  8  4  0  0  0
  7 10  1  0  0  0
  8  9  4  0  0  0
  8 13  1  0  0  0
 10 11  1  0  0  0
 10 31  1  0  0  0
 11 12  1  0  0  0
 12 13  1  0  0  0
 13 14  2  0  0  0
 15 16  2  0  0  0
 15 17  1  0  0  0
 17 18  1  0  0  0
 18 19  4  0  0  0
 18 22  4  0  0  0
 19 20  4  0  0  0
 20 21  4  0  0  0
 21 22  4  0  0  0
 21 23  1  0  0  0
 23 24  1  0  0  0
 23 25  2  0  0  0
 24 26  1  0  0  0
 26 27  1  0  0  0
 27 28  1  0  0  0
 28 29  1  0  0  0
 28 30  1  0  0  0
  2 32  1  0  0  0
  5 33  1  0  0  0
  6 34  1  0  0  0
 10 35  1  0  0  0
 11 36  1  0  0  0
 11 37  1  0  0  0
 12 38  1  0  0  0
 17 39  1  0  0  0
 20 40  1  0  0  0
 24 41  1  0  0  0
 26 42  1  0  0  0
 26 43  1  0  0  0
 27 44  1  0  0  0
 27 45  1  0  0  0
 28 46  1  0  0  0
 29 47  1  0  0  0
 29 48  1  0  0  0
 29 49  1  0  0  0
 30 50  1  0  0  0
 30 51  1  0  0  0
 30 52  1  0  0  0
 31 53  1  0  0  0
 31 54  1  0  0  0
 31 55  1  0  0  0
M  END
$$$$
