1ogz_ligand
  -I-interpret- 

 38 41  0  0  0  0  0  0  0  0999 V2000
   20.2120   76.6230   11.8630 C   0  0  0  0  0
   18.8620   76.1710   12.0560 C   0  0  0  0  0
   17.9430   76.2500   10.9860 C   0  0  0  0  0
   18.4260   76.8190    9.6500 C   0  0  0  0  0
   19.8110   77.2540    9.5320 C   0  0  0  0  0
   20.6770   77.1480   10.6390 C   0  0  0  0  0
   16.5700   75.8060   11.1430 C   0  0  0  0  0
   15.6460   75.9010   10.0470 C   0  0  0  0  0
   16.0660   76.4330    8.7770 C   0  0  0  0  0
   17.4910   76.8980    8.5790 C   0  0  0  0  0
   15.0750   76.5780    7.5420 C   0  0  0  0  0
   15.7160   76.5110    6.0460 C   0  0  0  0  0
   16.9140   77.5460    5.9950 C   0  0  0  0  0
   17.8790   77.4590    7.1650 C   0  0  0  0  0
   13.9170   75.5640    7.3360 C   0  0  0  0  0
   13.2700   76.1550    6.0330 C   0  0  0  0  0
   14.4620   76.7360    5.2440 C   0  0  0  0  0
   16.3350   75.1000    5.5850 C   0  0  0  0  0
   21.0620   76.5490   12.8640 O   0  0  0  0  0
   14.4110   77.3060    4.1340 O   0  0  0  0  0
   18.5494   75.7703   13.0203 H   0  0  0  0  0
   20.1771   77.6608    8.5893 H   0  0  0  0  0
   21.7132   77.4739   10.5487 H   0  0  0  0  0
   16.2381   75.3982   12.0978 H   0  0  0  0  0
   14.6168   75.5670   10.1784 H   0  0  0  0  0
   14.7373   77.5564    7.8838 H   0  0  0  0  0
   16.4733   78.5426    6.0209 H   0  0  0  0  0
   17.4867   77.3240    5.0945 H   0  0  0  0  0
   18.6189   76.7394    6.8146 H   0  0  0  0  0
   18.1009   78.5057    7.3732 H   0  0  0  0  0
   13.2341   75.4807    8.1814 H   0  0  0  0  0
   14.2363   74.5253    7.2505 H   0  0  0  0  0
   12.5178   76.9118    6.2557 H   0  0  0  0  0
   12.7311   75.3981    5.4632 H   0  0  0  0  0
   17.1396   74.8184    6.2643 H   0  0  0  0  0
   15.5557   74.3382    5.6071 H   0  0  0  0  0
   16.7278   75.1905    4.5723 H   0  0  0  0  0
   20.6202   76.1767   13.6307 H   0  0  0  0  0
  1  6  4  0  0  0
  1  2  4  0  0  0
  1 19  1  0  0  0
  2  3  4  0  0  0
  3  4  4  0  0  0
  3  7  4  0  0  0
  4  5  4  0  0  0
  4 10  4  0  0  0
  5  6  4  0  0  0
  7  8  4  0  0  0
  8  9  4  0  0  0
  9 10  4  0  0  0
  9 11  1  0  0  0
 10 14  1  0  0  0
 11 12  1  0  0  0
 11 15  1  0  0  0
 12 13  1  0  0  0
 12 17  1  0  0  0
 12 18  1  0  0  0
 13 14  1  0  0  0
 15 16  1  0  0  0
 16 17  1  0  0  0
 17 20  2  0  0  0
  2 21  1  0  0  0
  5 22  1  0  0  0
  6 23  1  0  0  0
  7 24  1  0  0  0
  8 25  1  0  0  0
 11 26  1  0  0  0
 13 27  1  0  0  0
 13 28  1  0  0  0
 14 29  1  0  0  0
 14 30  1  0  0  0
 15 31  1  0  0  0
 15 32  1  0  0  0
 16 33  1  0  0  0
 16 34  1  0  0  0
 18 35  1  0  0  0
 18 36  1  0  0  0
 18 37  1  0  0  0
 19 38  1  0  0  0
M  END
$$$$
