6enm_ligand
  -I-interpret- 

 47 49  0  0  0  0  0  0  0  0999 V2000
    5.4770    0.6600    8.9130 O   0  0  0  0  0
    5.6830    1.0850    7.7480 C   0  0  0  0  0
    6.8480    1.2400    7.2080 N   0  0  0  0  0
    7.8850    0.8990    8.0190 O   0  0  0  0  0
    4.5360    1.3700    6.8130 C   0  0  0  0  0
    3.3530    1.8750    7.6360 C   0  0  0  0  0
    2.5110    0.9270    8.1210 C   0  0  0  0  0
    1.4070    1.2540    8.8890 C   0  0  0  0  0
    1.1680    2.5310    9.1760 C   0  0  0  0  0
    1.9660    3.5320    8.7090 C   0  0  0  0  0
    3.1170    3.2210    7.9110 C   0  0  0  0  0
    4.0920    4.5120    7.4180 S   0  0  0  0  0
    3.2240    5.6180    7.3580 O   0  0  0  0  0
    4.7760    4.2350    6.2450 O   0  0  0  0  0
    5.1560    4.8410    8.6420 C   0  0  0  0  0
    6.5490    4.9010    8.3940 C   0  0  0  0  0
    7.4390    5.2970    9.3610 C   0  0  0  0  0
    7.0530    5.6140   10.6250 C   0  0  0  0  0
    5.6400    5.6340   10.8920 C   0  0  0  0  0
    4.7290    5.2060    9.9130 C   0  0  0  0  0
    7.9180    6.1980   11.6860 C   0  0  0  0  0
    8.8420    7.1390   11.2360 C   0  0  0  0  0
    9.6320    7.8450   12.1540 C   0  0  0  0  0
    9.4270    7.7280   13.5230 C   0  0  0  0  0
   10.1910    8.4650   14.3740 O   0  0  0  0  0
    9.7720    8.6020   15.7400 C   0  0  0  0  0
    8.4690    6.7620   13.9600 C   0  0  0  0  0
    7.6850    6.0750   13.0540 C   0  0  0  0  0
    6.9775    1.5873    6.2577 H   0  0  0  0  0
    8.7130    1.0393    7.5539 H   0  0  0  0  0
    4.2568    0.4615    6.2793 H   0  0  0  0  0
    4.8300    2.1241    6.0830 H   0  0  0  0  0
    2.7100   -0.1215    7.8993 H   0  0  0  0  0
    0.7401    0.4733    9.2550 H   0  0  0  0  0
    0.3114    2.7831    9.8011 H   0  0  0  0  0
    1.7296    4.5702    8.9420 H   0  0  0  0  0
    6.9245    4.6253    7.4086 H   0  0  0  0  0
    8.4967    5.3597    9.1052 H   0  0  0  0  0
    5.2749    5.9827   11.8580 H   0  0  0  0  0
    3.6671    5.1592   10.1545 H   0  0  0  0  0
    8.9508    7.3266   10.1678 H   0  0  0  0  0
   10.4229    8.4988   11.7863 H   0  0  0  0  0
    8.7903    9.0747   15.7719 H   0  0  0  0  0
    9.7174    7.6165   16.2025 H   0  0  0  0  0
   10.4912    9.2185   16.2792 H   0  0  0  0  0
    8.3551    6.5641   15.0258 H   0  0  0  0  0
    6.8797    5.4332   13.4112 H   0  0  0  0  0
  1  2  2  0  0  0
  2  3  1  0  0  0
  2  5  1  0  0  0
  3  4  1  0  0  0
  5  6  1  0  0  0
  6  7  4  0  0  0
  6 11  4  0  0  0
  7  8  4  0  0  0
  8  9  4  0  0  0
  9 10  4  0  0  0
 10 11  4  0  0  0
 11 12  1  0  0  0
 12 13  2  0  0  0
 12 14  2  0  0  0
 12 15  1  0  0  0
 15 16  4  0  0  0
 15 20  4  0  0  0
 16 17  4  0  0  0
 17 18  4  0  0  0
 18 19  4  0  0  0
 18 21  1  0  0  0
 19 20  4  0  0  0
 21 22  4  0  0  0
 21 28  4  0  0  0
 22 23  4  0  0  0
 23 24  4  0  0  0
 24 25  1  0  0  0
 24 27  4  0  0  0
 25 26  1  0  0  0
 27 28  4  0  0  0
  3 29  1  0  0  0
  4 30  1  0  0  0
  5 31  1  0  0  0
  5 32  1  0  0  0
  7 33  1  0  0  0
  8 34  1  0  0  0
  9 35  1  0  0  0
 10 36  1  0  0  0
 16 37  1  0  0  0
 17 38  1  0  0  0
 19 39  1  0  0  0
 20 40  1  0  0  0
 22 41  1  0  0  0
 23 42  1  0  0  0
 26 43  1  0  0  0
 26 44  1  0  0  0
 26 45  1  0  0  0
 27 46  1  0  0  0
 28 47  1  0  0  0
M  END
$$$$
