1g4j_ligand
  -I-interpret- 

 34 35  0  0  0  0  0  0  0  0999 V2000
   -3.7910    3.4140   14.8570 C   0  0  0  0  0
   -4.2600    2.3160   15.5700 C   0  0  0  0  0
   -5.6410    2.2290   15.8850 C   0  0  0  0  0
   -6.4870    3.2450   15.4460 C   0  0  0  0  0
   -5.9900    4.3270   14.7320 C   0  0  0  0  0
   -4.6480    4.4260   14.4440 C   0  0  0  0  0
   -4.1170    5.6280   13.7280 C   0  0  0  0  0
   -4.9540    6.4720   13.4230 O   0  0  0  0  0
   -2.7550    5.8620   13.4360 N   0  0  0  0  0
   -2.3840    6.7140   12.3150 C   0  0  0  0  0
   -6.2020    0.8280   16.8390 S   0  0  0  0  0
   -5.7890   -0.5940   16.0600 N   0  0  0  0  0
   -7.6480    1.0770   16.9330 O   0  0  0  0  0
   -5.5440    1.0340   18.1350 O   0  0  0  0  0
   -1.3870    7.6740   12.6900 C   0  0  0  0  0
   -1.5660    8.3690   13.9310 C   0  0  0  0  0
   -0.5680    9.3310   14.3390 C   0  0  0  0  0
    0.5830    9.5770   13.5040 C   0  0  0  0  0
    0.7500    8.8730   12.2650 C   0  0  0  0  0
   -0.2250    7.9230   11.8510 C   0  0  0  0  0
   -2.6310    8.1410   14.7120 F   0  0  0  0  0
   -0.7120    9.9940   15.4950 F   0  0  0  0  0
    1.5030   10.4710   13.8910 F   0  0  0  0  0
    1.8200    9.1010   11.4910 F   0  0  0  0  0
   -0.0430    7.2770   10.6910 F   0  0  0  0  0
   -2.7298    3.4818   14.6175 H   0  0  0  0  0
   -3.5735    1.5297   15.8839 H   0  0  0  0  0
   -7.5531    3.1897   15.6660 H   0  0  0  0  0
   -6.6716    5.1081   14.3952 H   0  0  0  0  0
   -2.0300    5.4334   14.0114 H   0  0  0  0  0
   -3.2719    7.2514   11.9819 H   0  0  0  0  0
   -1.9762    6.0847   11.5239 H   0  0  0  0  0
   -5.1261   -1.2380   16.4916 H   0  0  0  0  0
   -6.2001   -0.8169   15.1535 H   0  0  0  0  0
  1  6  4  0  0  0
  1  2  4  0  0  0
  2  3  4  0  0  0
  3 11  1  0  0  0
  3  4  4  0  0  0
  4  5  4  0  0  0
  5  6  4  0  0  0
  6  7  1  0  0  0
  7  9  1  0  0  0
  7  8  2  0  0  0
  9 10  1  0  0  0
 10 15  1  0  0  0
 15 20  4  0  0  0
 15 16  4  0  0  0
 16 17  4  0  0  0
 17 18  4  0  0  0
 18 19  4  0  0  0
 19 20  4  0  0  0
 11 14  2  0  0  0
 11 13  2  0  0  0
 11 12  1  0  0  0
 18 23  1  0  0  0
 19 24  1  0  0  0
 17 22  1  0  0  0
 16 21  1  0  0  0
 20 25  1  0  0  0
  1 26  1  0  0  0
  2 27  1  0  0  0
  4 28  1  0  0  0
  5 29  1  0  0  0
  9 30  1  0  0  0
 10 31  1  0  0  0
 10 32  1  0  0  0
 12 33  1  0  0  0
 12 34  1  0  0  0
M  END
$$$$
