3sad_ligand
  -I-interpret- 

 25 25  0  0  0  0  0  0  0  0999 V2000
   32.6190   76.4190   60.3900 C   0  0  0  0  0
   33.2810   75.4690   61.3220 C   0  0  0  0  0
   34.5580   75.7080   61.8750 C   0  0  0  0  0
   35.3480   76.9200   61.6140 C   0  0  0  0  0
   35.5630   77.2780   60.2970 O   0  0  0  0  0
   35.9220   77.6350   62.5940 C   0  0  0  0  0
   36.8400   78.7500   62.3810 C   0  0  0  0  0
   37.8820   78.9380   63.4450 C   0  0  0  0  0
   39.1590   78.8940   62.9660 O   0  0  0  0  0
   37.8070   78.5500   64.6090 O   0  0  0  0  0
   36.9600   79.3760   61.3300 O   0  0  0  0  0
   35.1450   74.7750   62.7560 C   0  0  0  0  0
   34.4890   73.5920   63.0730 C   0  0  0  0  0
   33.2250   73.3430   62.5120 C   0  0  0  0  0
   32.6320   74.2680   61.6480 C   0  0  0  0  0
   32.4861   77.3801   60.8867 H   0  0  0  0  0
   33.2404   76.5493   59.5040 H   0  0  0  0  0
   31.6468   76.0218   60.0983 H   0  0  0  0  0
   35.0884   76.6743   59.7209 H   0  0  0  0  0
   35.6858   77.3637   63.6229 H   0  0  0  0  0
   39.1697   79.2046   62.0577 H   0  0  0  0  0
   36.1219   74.9843   63.1918 H   0  0  0  0  0
   34.9478   72.8682   63.7465 H   0  0  0  0  0
   32.7010   72.4181   62.7533 H   0  0  0  0  0
   31.6521   74.0537   61.2215 H   0  0  0  0  0
  1  2  1  0  0  0
  2  3  4  0  0  0
  2 15  4  0  0  0
  3  4  1  0  0  0
  3 12  4  0  0  0
  4  5  1  0  0  0
  4  6  2  0  0  0
  6  7  1  0  0  0
  7  8  1  0  0  0
  7 11  2  0  0  0
  8  9  1  0  0  0
  8 10  2  0  0  0
 12 13  4  0  0  0
 13 14  4  0  0  0
 14 15  4  0  0  0
  1 16  1  0  0  0
  1 17  1  0  0  0
  1 18  1  0  0  0
  5 19  1  0  0  0
  6 20  1  0  0  0
  9 21  1  0  0  0
 12 22  1  0  0  0
 13 23  1  0  0  0
 14 24  1  0  0  0
 15 25  1  0  0  0
M  END
$$$$
