3a9i_ligand
  -I-interpret- 

 26 25  0  0  0  0  0  0  0  0999 V2000
   24.4720   17.8700    1.6860 N   0  3  0  0  0
   25.8430   18.4940    1.5890 C   0  0  0  0  0
   26.5720   17.8450    0.4150 C   0  0  0  0  0
   26.1970   16.7640   -0.0490 O   0  0  0  0  0
   26.6050   18.2300    2.8790 C   0  0  0  0  0
   27.9560   18.9190    3.0110 C   0  0  0  0  0
   28.6080   18.4330    4.3100 C   0  0  0  0  0
   29.8120   19.2760    4.6620 C   0  0  0  0  0
   30.2730   18.9510    6.0650 N   0  3  0  0  0
   27.5510   18.4080   -0.0920 O   0  0  0  0  0
   23.9582   18.0451    0.8225 H   0  0  0  0  0
   24.5667   16.8645    1.8287 H   0  0  0  0  0
   23.9679   18.2802    2.4722 H   0  0  0  0  0
   25.7684   19.5707    1.4366 H   0  0  0  0  0
   26.8049   17.1587    2.9019 H   0  0  0  0  0
   25.9837   18.6188    3.6858 H   0  0  0  0  0
   27.8270   20.0011    3.0353 H   0  0  0  0  0
   28.5886   18.6759    2.1573 H   0  0  0  0  0
   28.9321   17.4013    4.1732 H   0  0  0  0  0
   27.8793   18.5110    5.1168 H   0  0  0  0  0
   29.5419   20.3306    4.6068 H   0  0  0  0  0
   30.6181   19.0637    3.9597 H   0  0  0  0  0
   31.0853   19.5231    6.2958 H   0  0  0  0  0
   29.5191   19.1474    6.7234 H   0  0  0  0  0
   30.5245   17.9640    6.1189 H   0  0  0  0  0
   27.7210   19.2312    0.3718 H   0  0  0  0  0
  1  2  1  0  0  0
  2  3  1  0  0  0
  2  5  1  0  0  0
  3  4  2  0  0  0
  3 10  1  0  0  0
  5  6  1  0  0  0
  6  7  1  0  0  0
  7  8  1  0  0  0
  8  9  1  0  0  0
  1 11  1  0  0  0
  1 12  1  0  0  0
  1 13  1  0  0  0
  2 14  1  0  0  0
  5 15  1  0  0  0
  5 16  1  0  0  0
  6 17  1  0  0  0
  6 18  1  0  0  0
  7 19  1  0  0  0
  7 20  1  0  0  0
  8 21  1  0  0  0
  8 22  1  0  0  0
  9 23  1  0  0  0
  9 24  1  0  0  0
  9 25  1  0  0  0
 10 26  1  0  0  0
M  END
$$$$
