5d12_ligand
  -I-interpret- 

 42 45  0  0  0  0  0  0  0  0999 V2000
   -6.2560   38.6040   -2.8200 C   0  0  0  0  0
   -4.9260   39.0210   -2.9230 C   0  0  0  0  0
   -4.6030   40.3760   -2.9750 C   0  0  0  0  0
   -5.6190   41.3150   -2.9260 C   0  0  0  0  0
   -6.9490   40.9060   -2.8290 C   0  0  0  0  0
   -7.2690   39.5490   -2.7820 C   0  0  0  0  0
   -8.6930   39.1450   -2.6790 C   0  0  0  0  0
   -9.1650   38.0410   -3.2950 N   0  0  0  0  0
   -9.5050   39.9310   -1.9620 N   0  0  0  0  0
  -10.8000   39.6430   -1.8280 C   0  0  0  0  0
  -11.5430   40.4960   -1.0650 C   0  0  0  0  0
  -12.8870   40.2810   -0.8760 C   0  0  0  0  0
  -13.4080   41.2190   -0.0610 N   0  0  0  0  0
  -14.5610   41.1690    0.6050 C   0  0  0  0  0
  -15.4210   40.3030    0.4420 O   0  0  0  0  0
  -14.7160   42.2550    1.6230 C   0  0  0  0  0
  -15.7780   42.3690    2.4070 C   0  0  0  0  0
  -13.5100   39.1540   -1.4480 C   0  0  0  0  0
  -12.7740   38.2450   -2.2470 C   0  0  0  0  0
  -11.4050   38.4490   -2.4620 C   0  0  0  0  0
  -10.4500   37.6150   -3.2620 C   0  0  0  0  0
  -10.7550   36.4910   -3.9710 N   0  0  0  0  0
   -9.7650   35.8530   -4.6650 C   0  0  0  0  0
   -8.4490   36.2020   -4.9720 C   0  0  0  0  0
   -7.8640   35.1340   -5.5970 C   0  0  0  0  0
   -8.8090   34.1750   -5.6600 N   0  0  0  0  0
  -10.0180   34.5900   -5.0730 N   0  0  0  0  0
   -6.4951   37.5417   -2.7699 H   0  0  0  0  0
   -4.1307   38.2767   -2.9632 H   0  0  0  0  0
   -3.5629   40.6924   -3.0533 H   0  0  0  0  0
   -5.3788   42.3776   -2.9633 H   0  0  0  0  0
   -7.7433   41.6514   -2.7897 H   0  0  0  0  0
  -11.0648   41.3581   -0.5999 H   0  0  0  0  0
  -12.8546   42.0672    0.0604 H   0  0  0  0  0
  -13.9159   42.9882    1.7245 H   0  0  0  0  0
  -16.5936   41.6502    2.3278 H   0  0  0  0  0
  -15.8361   43.1816    3.1312 H   0  0  0  0  0
  -14.5717   38.9795   -1.2734 H   0  0  0  0  0
  -13.2734   37.3859   -2.6950 H   0  0  0  0  0
  -11.7093   36.1309   -3.9834 H   0  0  0  0  0
   -7.9712   37.1569   -4.7527 H   0  0  0  0  0
   -6.8412   35.0717   -5.9685 H   0  0  0  0  0
  1  2  4  0  0  0
  1  6  4  0  0  0
  2  3  4  0  0  0
  3  4  4  0  0  0
  4  5  4  0  0  0
  5  6  4  0  0  0
  6  7  1  0  0  0
  7  8  4  0  0  0
  7  9  4  0  0  0
  8 21  4  0  0  0
  9 10  4  0  0  0
 10 11  4  0  0  0
 10 20  4  0  0  0
 11 12  4  0  0  0
 12 13  1  0  0  0
 12 18  4  0  0  0
 13 14  1  0  0  0
 14 15  2  0  0  0
 14 16  1  0  0  0
 16 17  2  0  0  0
 18 19  4  0  0  0
 19 20  4  0  0  0
 20 21  4  0  0  0
 21 22  1  0  0  0
 22 23  1  0  0  0
 23 24  4  0  0  0
 23 27  4  0  0  0
 24 25  4  0  0  0
 25 26  4  0  0  0
 26 27  4  0  0  0
  1 28  1  0  0  0
  2 29  1  0  0  0
  3 30  1  0  0  0
  4 31  1  0  0  0
  5 32  1  0  0  0
 11 33  1  0  0  0
 13 34  1  0  0  0
 16 35  1  0  0  0
 17 36  1  0  0  0
 17 37  1  0  0  0
 18 38  1  0  0  0
 19 39  1  0  0  0
 22 40  1  0  0  0
 24 41  1  0  0  0
 25 42  1  0  0  0
M  END
$$$$
