5zo9_ligand
  -I-interpret- 

 52 54  0  0  0  0  0  0  0  0999 V2000
   27.2220   -5.4380   -8.7890 O   0  0  0  0  0
   26.8470   -6.2280   -9.6540 C   0  0  0  0  0
   27.7140   -6.5140  -10.6180 O   0  0  0  0  0
   25.4680   -6.8520   -9.6790 C   0  0  0  0  0
   24.7510   -6.4620   -8.5070 N   0  3  0  0  0
   24.6330   -6.3200  -10.8320 C   0  0  0  0  0
   22.9400   -6.9370  -10.9210 S   0  0  0  0  0
   21.9990   -6.0200  -12.1810 C   0  0  0  0  0
   20.5980   -6.5680  -12.3980 C   0  0  0  0  0
   19.5400   -5.7170  -12.8230 C   0  0  0  0  0
   18.2550   -6.2420  -13.0080 C   0  0  0  0  0
   18.0060   -7.6090  -12.7800 C   0  0  0  0  0
   19.0360   -8.4550  -12.3620 C   0  0  0  0  0
   20.3210   -7.9370  -12.1750 C   0  0  0  0  0
   22.6450   -6.0910  -13.5770 C   0  0  0  0  0
   23.6530   -7.0270  -13.9170 C   0  0  0  0  0
   24.2410   -7.0810  -15.1820 C   0  0  0  0  0
   23.8180   -6.2230  -16.1790 C   0  0  0  0  0
   22.8150   -5.3050  -15.8740 C   0  0  0  0  0
   22.2310   -5.2440  -14.6000 C   0  0  0  0  0
   21.9880   -4.6550  -11.5130 C   0  0  0  0  0
   22.8830   -3.6270  -11.8570 C   0  0  0  0  0
   22.8410   -2.4070  -11.1580 C   0  0  0  0  0
   21.9340   -2.1810  -10.0910 C   0  0  0  0  0
   21.8670   -1.0060   -9.3710 O   0  0  0  0  0
   22.8880   -0.0150   -9.4980 C   0  0  0  0  0
   21.0410   -3.1950   -9.7580 C   0  0  0  0  0
   21.0820   -4.4130  -10.4420 C   0  0  0  0  0
   27.3153   -7.1356  -11.2314 H   0  0  0  0  0
   25.6142   -7.9291   -9.7606 H   0  0  0  0  0
   25.2523   -6.7856   -7.6797 H   0  0  0  0  0
   24.6708   -5.4455   -8.4815 H   0  0  0  0  0
   23.8196   -6.8774   -8.5257 H   0  0  0  0  0
   25.1283   -6.6440  -11.7473 H   0  0  0  0  0
   24.5617   -5.2417  -10.6899 H   0  0  0  0  0
   19.7292   -4.6589  -13.0042 H   0  0  0  0  0
   17.4436   -5.5893  -13.3301 H   0  0  0  0  0
   17.0035   -8.0095  -12.9306 H   0  0  0  0  0
   18.8391   -9.5120  -12.1828 H   0  0  0  0  0
   21.1236   -8.5998  -11.8516 H   0  0  0  0  0
   23.9837   -7.7357  -13.1578 H   0  0  0  0  0
   25.0345   -7.8007  -15.3834 H   0  0  0  0  0
   24.2565   -6.2631  -17.1761 H   0  0  0  0  0
   22.4749   -4.6154  -16.6466 H   0  0  0  0  0
   21.4389   -4.5202  -14.4082 H   0  0  0  0  0
   23.6049   -3.7743  -12.6603 H   0  0  0  0  0
   23.5270   -1.6102  -11.4453 H   0  0  0  0  0
   23.8465   -0.4430   -9.2043 H   0  0  0  0  0
   22.9404    0.3201  -10.5339 H   0  0  0  0  0
   22.6534    0.8313   -8.8524 H   0  0  0  0  0
   20.3102   -3.0394   -8.9644 H   0  0  0  0  0
   20.3958   -5.2060  -10.1448 H   0  0  0  0  0
  1  2  2  0  0  0
  2  3  1  0  0  0
  2  4  1  0  0  0
  4  5  1  0  0  0
  4  6  1  0  0  0
  6  7  1  0  0  0
  7  8  1  0  0  0
  8  9  1  0  0  0
  8 15  1  0  0  0
  8 21  1  0  0  0
  9 10  4  0  0  0
  9 14  4  0  0  0
 10 11  4  0  0  0
 11 12  4  0  0  0
 12 13  4  0  0  0
 13 14  4  0  0  0
 15 16  4  0  0  0
 15 20  4  0  0  0
 16 17  4  0  0  0
 17 18  4  0  0  0
 18 19  4  0  0  0
 19 20  4  0  0  0
 21 22  4  0  0  0
 21 28  4  0  0  0
 22 23  4  0  0  0
 23 24  4  0  0  0
 24 25  1  0  0  0
 24 27  4  0  0  0
 25 26  1  0  0  0
 27 28  4  0  0  0
  3 29  1  0  0  0
  4 30  1  0  0  0
  5 31  1  0  0  0
  5 32  1  0  0  0
  5 33  1  0  0  0
  6 34  1  0  0  0
  6 35  1  0  0  0
 10 36  1  0  0  0
 11 37  1  0  0  0
 12 38  1  0  0  0
 13 39  1  0  0  0
 14 40  1  0  0  0
 16 41  1  0  0  0
 17 42  1  0  0  0
 18 43  1  0  0  0
 19 44  1  0  0  0
 20 45  1  0  0  0
 22 46  1  0  0  0
 23 47  1  0  0  0
 26 48  1  0  0  0
 26 49  1  0  0  0
 26 50  1  0  0  0
 27 51  1  0  0  0
 28 52  1  0  0  0
M  END
$$$$
