2c5n_ligand
  -I-interpret- 

 42 44  0  0  0  0  0  0  0  0999 V2000
    5.1880   51.1130    2.5540 C   0  0  0  0  0
    3.9510   51.3930    2.9850 N   0  0  0  0  0
    3.0060   50.4210    2.8440 C   0  0  0  0  0
    3.2850   49.2270    2.3180 N   0  0  0  0  0
    4.4950   48.8950    1.9130 C   0  0  0  0  0
    5.5040   49.8490    2.0500 C   0  0  0  0  0
    4.6830   47.6160    1.3910 C   0  0  0  0  0
    6.0160   47.2080    0.9480 C   0  0  0  0  0
    6.0560   45.9620    0.4590 N   0  0  0  0  0
    4.8430   45.4220    0.5520 C   0  0  0  0  0
    3.5770   46.3600    1.1850 S   0  0  0  0  0
    7.2910   47.9770    0.9500 C   0  0  0  0  0
    4.6590   44.0250    0.0270 C   0  0  0  0  0
    1.7190   50.6810    3.1960 N   0  0  0  0  0
    0.5680   49.9500    3.1600 C   0  0  0  0  0
   -0.5470   50.6040    3.6600 C   0  0  0  0  0
   -1.7950   50.0070    3.7280 C   0  0  0  0  0
   -1.9570   48.7190    3.2620 C   0  0  0  0  0
   -0.8480   48.0450    2.7570 C   0  0  0  0  0
    0.4150   48.6390    2.7210 C   0  0  0  0  0
   -3.1910   48.1560    3.3380 N   0  0  0  0  0
   -3.4180   46.7970    2.8740 C   0  0  0  0  0
   -4.3130   48.9080    3.8820 C   0  0  0  0  0
    5.9590   51.8823    2.5971 H   0  0  0  0  0
    6.5290   49.6103    1.7665 H   0  0  0  0  0
    7.1767   48.8691    0.3342 H   0  0  0  0  0
    7.5367   48.2679    1.9713 H   0  0  0  0  0
    8.0896   47.3549    0.5459 H   0  0  0  0  0
    4.9030   44.0023   -1.0351 H   0  0  0  0  0
    5.3182   43.3455    0.5671 H   0  0  0  0  0
    3.6229   43.7181    0.1697 H   0  0  0  0  0
    1.5858   51.6224    3.5654 H   0  0  0  0  0
   -0.4374   51.6291    4.0139 H   0  0  0  0  0
   -2.6421   50.5506    4.1463 H   0  0  0  0  0
   -0.9689   47.0292    2.3807 H   0  0  0  0  0
    1.2746   48.0797    2.3517 H   0  0  0  0  0
   -3.1701   46.7300    1.8147 H   0  0  0  0  0
   -2.7877   46.1111    3.4400 H   0  0  0  0  0
   -4.4657   46.5346    3.0206 H   0  0  0  0  0
   -4.0934   49.1922    4.9111 H   0  0  0  0  0
   -4.4729   49.8042    3.2825 H   0  0  0  0  0
   -5.2096   48.2886    3.8582 H   0  0  0  0  0
  1  2  4  0  0  0
  1  6  4  0  0  0
  2  3  4  0  0  0
  3  4  4  0  0  0
  3 14  1  0  0  0
  4  5  4  0  0  0
  5  6  4  0  0  0
  5  7  1  0  0  0
  7  8  4  0  0  0
  7 11  4  0  0  0
  8  9  4  0  0  0
  8 12  1  0  0  0
  9 10  4  0  0  0
 10 11  4  0  0  0
 10 13  1  0  0  0
 14 15  1  0  0  0
 15 16  4  0  0  0
 15 20  4  0  0  0
 16 17  4  0  0  0
 17 18  4  0  0  0
 18 19  4  0  0  0
 18 21  1  0  0  0
 19 20  4  0  0  0
 21 22  1  0  0  0
 21 23  1  0  0  0
  1 24  1  0  0  0
  6 25  1  0  0  0
 12 26  1  0  0  0
 12 27  1  0  0  0
 12 28  1  0  0  0
 13 29  1  0  0  0
 13 30  1  0  0  0
 13 31  1  0  0  0
 14 32  1  0  0  0
 16 33  1  0  0  0
 17 34  1  0  0  0
 19 35  1  0  0  0
 20 36  1  0  0  0
 22 37  1  0  0  0
 22 38  1  0  0  0
 22 39  1  0  0  0
 23 40  1  0  0  0
 23 41  1  0  0  0
 23 42  1  0  0  0
M  END
$$$$
