3dpk_ligand
  -I-interpret- 

 71 75  0  0  0  0  0  0  0  0999 V2000
   10.5750   20.2780    3.8290 C   0  0  0  0  0
    9.1840   20.5580    4.0830 O   0  0  0  0  0
    8.9300   21.7140    4.8030 N   0  0  0  0  0
    8.1400   22.7880    4.3020 C   0  0  0  0  0
    7.5770   22.7950    3.2110 O   0  0  0  0  0
    7.6990   23.8810    5.2840 C   0  0  0  0  0
    6.7760   24.8060    4.8920 C   0  0  0  0  0
    6.4820   25.9810    5.5640 N   0  0  0  0  0
    6.9230   26.1680    6.8980 C   0  0  0  0  0
    6.5840   27.2810    7.6170 N   0  0  0  0  0
    7.0810   27.3670    8.9570 C   0  0  0  0  0
    7.8780   26.4280    9.5120 N   0  0  0  0  0
    8.1700   25.3910    8.7230 C   0  0  0  0  0
    7.7440   25.1650    7.4200 C   0  0  0  0  0
    8.1500   23.9510    6.6790 C   0  0  0  0  0
    8.8680   23.0950    7.2350 O   0  0  0  0  0
    6.6640   28.5620    9.5580 N   0  0  0  0  0
    5.6360   29.5710    9.1820 C   0  0  0  0  0
    5.3710   29.9530    7.8660 C   0  0  0  0  0
    4.3530   30.8810    7.5520 C   0  0  0  0  0
    3.5530   31.5060    8.4990 C   0  0  0  0  0
    3.8150   31.1030    9.8170 C   0  0  0  0  0
    4.8140   30.1950   10.1520 C   0  0  0  0  0
    2.3450   32.3680    8.1220 C   0  0  0  0  0
    0.9960   31.5910    8.3420 C   0  0  0  0  0
   -0.2520   32.2860    7.8520 N   0  3  0  0  0
   -0.0410   33.1120    6.6340 C   0  0  0  0  0
   -1.4500   33.5850    6.2310 C   0  0  0  0  0
   -2.3920   32.5620    6.8390 C   0  0  0  0  0
   -1.4960   31.5320    7.5440 C   0  0  0  0  0
    5.8230   27.1630    4.8020 C   0  0  0  0  0
    6.7760   27.8110    3.7830 C   0  0  0  0  0
    6.1580   29.0520    3.1280 C   0  0  0  0  0
    4.9640   28.7180    2.2910 C   0  0  0  0  0
    3.9710   27.9820    3.1610 C   0  0  0  0  0
    4.5330   26.8310    4.0590 C   0  0  0  0  0
   11.0112   21.0982    3.2588 H   0  0  0  0  0
   11.1021   20.1724    4.7772 H   0  0  0  0  0
   10.6599   19.3524    3.2596 H   0  0  0  0  0
    9.3284   21.8002    5.7380 H   0  0  0  0  0
    6.2242   24.6037    3.9740 H   0  0  0  0  0
    8.8211   24.6300    9.1531 H   0  0  0  0  0
    7.1613   28.7836   10.4205 H   0  0  0  0  0
    5.9652   29.5240    7.0591 H   0  0  0  0  0
    4.1855   31.1209    6.5020 H   0  0  0  0  0
    3.2058   31.5220   10.6178 H   0  0  0  0  0
    4.9706   29.9540   11.2034 H   0  0  0  0  0
    2.4241   32.6332    7.0677 H   0  0  0  0  0
    2.3412   33.2551    8.7554 H   0  0  0  0  0
    0.8803   31.4753    9.4196 H   0  0  0  0  0
    1.0773   30.6664    7.7705 H   0  0  0  0  0
   -0.4149   32.7954    8.7205 H   0  0  0  0  0
    0.4401   32.5448    5.8372 H   0  0  0  0  0
    0.6299   33.9500    6.8231 H   0  0  0  0  0
   -1.5627   33.6471    5.1486 H   0  0  0  0  0
   -1.6581   34.5924    6.5915 H   0  0  0  0  0
   -3.0112   32.0912    6.0755 H   0  0  0  0  0
   -3.0849   33.0288    7.5390 H   0  0  0  0  0
   -1.9633   31.1233    8.4400 H   0  0  0  0  0
   -1.3050   30.6572    6.9224 H   0  0  0  0  0
    5.5792   27.8492    5.6130 H   0  0  0  0  0
    6.9863   27.0815    3.0009 H   0  0  0  0  0
    7.6803   28.1174    4.3087 H   0  0  0  0  0
    6.9100   29.5018    2.4797 H   0  0  0  0  0
    5.8367   29.7278    3.9206 H   0  0  0  0  0
    5.2594   28.0938    1.4477 H   0  0  0  0  0
    4.5147   29.6296    1.8971 H   0  0  0  0  0
    3.2672   27.5093    2.4760 H   0  0  0  0  0
    3.5672   28.7260    3.8477 H   0  0  0  0  0
    3.7772   26.6265    4.8174 H   0  0  0  0  0
    4.7585   25.9962    3.3954 H   0  0  0  0  0
  1  2  1  0  0  0
  2  3  1  0  0  0
  3  4  1  0  0  0
  4  5  2  0  0  0
  4  6  1  0  0  0
  6  7  2  0  0  0
  6 15  1  0  0  0
  7  8  1  0  0  0
  8  9  1  0  0  0
  8 31  1  0  0  0
  9 10  4  0  0  0
  9 14  4  0  0  0
 10 11  4  0  0  0
 11 12  4  0  0  0
 11 17  1  0  0  0
 12 13  4  0  0  0
 13 14  4  0  0  0
 14 15  1  0  0  0
 15 16  2  0  0  0
 17 18  1  0  0  0
 18 19  4  0  0  0
 18 23  4  0  0  0
 19 20  4  0  0  0
 20 21  4  0  0  0
 21 22  4  0  0  0
 21 24  1  0  0  0
 22 23  4  0  0  0
 24 25  1  0  0  0
 25 26  1  0  0  0
 26 27  1  0  0  0
 26 30  1  0  0  0
 27 28  1  0  0  0
 28 29  1  0  0  0
 29 30  1  0  0  0
 31 32  1  0  0  0
 31 36  1  0  0  0
 32 33  1  0  0  0
 33 34  1  0  0  0
 34 35  1  0  0  0
 35 36  1  0  0  0
  1 37  1  0  0  0
  1 38  1  0  0  0
  1 39  1  0  0  0
  3 40  1  0  0  0
  7 41  1  0  0  0
 13 42  1  0  0  0
 17 43  1  0  0  0
 19 44  1  0  0  0
 20 45  1  0  0  0
 22 46  1  0  0  0
 23 47  1  0  0  0
 24 48  1  0  0  0
 24 49  1  0  0  0
 25 50  1  0  0  0
 25 51  1  0  0  0
 26 52  1  0  0  0
 27 53  1  0  0  0
 27 54  1  0  0  0
 28 55  1  0  0  0
 28 56  1  0  0  0
 29 57  1  0  0  0
 29 58  1  0  0  0
 30 59  1  0  0  0
 30 60  1  0  0  0
 31 61  1  0  0  0
 32 62  1  0  0  0
 32 63  1  0  0  0
 33 64  1  0  0  0
 33 65  1  0  0  0
 34 66  1  0  0  0
 34 67  1  0  0  0
 35 68  1  0  0  0
 35 69  1  0  0  0
 36 70  1  0  0  0
 36 71  1  0  0  0
M  END
$$$$
