1axr_ligand
  -I-interpret- 

 25 26  0  0  0  0  0  0  0  0999 V2000
   34.1300   22.4540   27.2440 C   0  0  0  0  0
   34.0150   22.8750   25.7920 C   0  0  0  0  0
   32.6100   22.4600   25.2760 C   0  0  0  0  0
   32.3490   20.9990   25.6100 C   0  0  0  0  0
   32.1530   20.8530   27.1400 C   0  0  0  0  0
   32.0400   19.4280   27.6180 C   0  0  0  0  0
   35.0110   22.8020   28.2190 C   0  0  0  0  0
   33.6460   21.2760   29.1170 N   0  0  0  0  0
   34.7380   22.1040   29.3320 N   0  0  0  0  0
   33.2430   21.4890   27.8060 N   0  0  0  0  0
   34.2970   24.2490   25.5610 O   0  0  0  0  0
   32.5880   22.6280   23.8830 O   0  0  0  0  0
   31.2450   20.4370   24.9220 O   0  0  0  0  0
   33.1410   18.7010   27.0730 O   0  0  0  0  0
   34.7883   22.3577   25.2241 H   0  0  0  0  0
   31.8425   23.0736   25.7478 H   0  0  0  0  0
   33.2225   20.4402   25.2739 H   0  0  0  0  0
   31.2005   21.3266   27.3778 H   0  0  0  0  0
   31.0966   18.9910   27.2907 H   0  0  0  0  0
   32.0610   19.3896   28.7071 H   0  0  0  0  0
   35.8128   23.5328   28.1133 H   0  0  0  0  0
   35.1726   24.4555   25.8961 H   0  0  0  0  0
   32.7526   23.5496   23.6703 H   0  0  0  0  0
   31.3766   20.5327   23.9759 H   0  0  0  0  0
   33.0940   17.7868   27.3623 H   0  0  0  0  0
  1  2  1  0  0  0
  1  7  4  0  0  0
  1 10  4  0  0  0
  2  3  1  0  0  0
  2 11  1  0  0  0
  3  4  1  0  0  0
  3 12  1  0  0  0
  4  5  1  0  0  0
  4 13  1  0  0  0
  5  6  1  0  0  0
  5 10  1  0  0  0
  6 14  1  0  0  0
  7  9  4  0  0  0
  9  8  4  0  0  0
  8 10  4  0  0  0
  2 15  1  0  0  0
  3 16  1  0  0  0
  4 17  1  0  0  0
  5 18  1  0  0  0
  6 19  1  0  0  0
  6 20  1  0  0  0
  7 21  1  0  0  0
 11 22  1  0  0  0
 12 23  1  0  0  0
 13 24  1  0  0  0
 14 25  1  0  0  0
M  END
$$$$
