1okv_ligand
  -I-interpret- 

109109  0  0  0  0  0  0  0  0999 V2000
   35.8970   21.6700   -1.4110 N   0  3  0  0  0
   37.0910   21.2880   -0.6230 C   0  0  0  0  0
   37.5280   22.4120    0.3190 C   0  0  0  0  0
   37.1800   23.5700    0.0830 O   0  0  0  0  0
   38.2560   20.9670   -1.5860 C   0  0  0  0  0
   38.5140   22.0400   -2.6470 C   0  0  0  0  0
   39.9360   22.0380   -3.2310 C   0  0  0  0  0
   39.9490   22.6470   -4.5570 N   0  0  0  0  0
   40.7750   23.6140   -4.9520 C   0  0  0  0  0
   41.7890   24.0390   -4.2060 N   0  0  0  0  0
   40.6260   24.1270   -6.1590 N   0  0  0  0  0
   38.1400   22.0560    1.4500 N   0  0  0  0  0
   38.7900   23.0490    2.2770 C   0  0  0  0  0
   39.8680   23.6780    1.4200 C   0  0  0  0  0
   40.5350   22.9590    0.6880 O   0  0  0  0  0
   39.4380   22.4240    3.5060 C   0  0  0  0  0
   40.1880   23.4580    4.3810 C   0  0  0  0  0
   40.8220   22.8800    5.6310 C   0  0  0  0  0
   42.2850   22.8760    5.5680 N   0  0  0  0  0
   43.0380   21.8320    5.2390 C   0  0  0  0  0
   44.3550   21.9520    5.3040 N   0  0  0  0  0
   42.5080   20.6580    4.8930 N   0  0  0  0  0
   39.9880   25.0030    1.4600 N   0  0  0  0  0
   40.9480   25.6730    0.6130 C   0  0  0  0  0
   42.3290   25.7510    1.2490 C   0  0  0  0  0
   42.5550   26.2690    2.3480 O   0  0  0  0  0
   40.4990   27.0290    0.0800 C   0  0  0  0  0
   39.5510   26.9080   -1.1200 C   0  0  0  0  0
   39.0990   28.3020   -1.5710 C   0  0  0  0  0
   40.1250   26.1190   -2.3040 C   0  0  0  0  0
   43.2840   25.2170    0.5180 N   0  0  0  0  0
   44.5970   25.2000    1.0680 C   0  0  0  0  0
   45.2730   26.5450    0.8570 C   0  0  0  0  0
   45.6660   26.8950   -0.2550 O   0  0  0  0  0
   45.3560   23.9800    0.5650 C   0  0  0  0  0
   45.7500   23.1680    1.7940 C   0  0  0  0  0
   46.5360   24.3440   -0.3710 C   0  0  0  0  0
   46.2880   24.0390    2.9450 C   0  0  0  0  0
   45.4210   27.2760    1.9590 N   0  0  0  0  0
   46.0160   28.6080    1.9750 C   0  0  0  0  0
   47.2860   28.5880    2.7980 C   0  0  0  0  0
   47.2510   28.1760    3.9550 O   0  0  0  0  0
   45.0240   29.5750    2.6310 C   0  0  0  0  0
   43.8330   29.8880    1.7820 C   0  0  0  0  0
   42.5660   29.6470    2.2450 C   0  0  0  0  0
   43.9830   30.4230    0.5190 C   0  0  0  0  0
   41.4820   29.9330    1.4550 C   0  0  0  0  0
   42.9130   30.7090   -0.2600 C   0  0  0  0  0
   41.6660   30.4550    0.1950 C   0  0  0  0  0
   48.3800   29.0910    2.2350 N   0  0  0  0  0
   35.6357   20.8989   -2.0255 H   0  0  0  0  0
   35.1252   21.8780   -0.7774 H   0  0  0  0  0
   36.1105   22.4953   -1.9711 H   0  0  0  0  0
   36.8318   20.4157   -0.0230 H   0  0  0  0  0
   37.9906   20.0516   -2.1150 H   0  0  0  0  0
   39.1595   20.8919   -0.9809 H   0  0  0  0  0
   38.3717   23.0059   -2.1623 H   0  0  0  0  0
   37.8317   21.8395   -3.4731 H   0  0  0  0  0
   40.2822   21.0077   -3.3127 H   0  0  0  0  0
   40.5883   22.6120   -2.5729 H   0  0  0  0  0
   39.2701   22.3041   -5.2367 H   0  0  0  0  0
   42.4290   24.7450   -4.5698 H   0  0  0  0  0
   41.9274   23.6593   -3.2695 H   0  0  0  0  0
   39.8874   23.7821   -6.7722 H   0  0  0  0  0
   38.1496   21.0763    1.7336 H   0  0  0  0  0
   38.0571   23.7747    2.6296 H   0  0  0  0  0
   40.1650   21.6883    3.1620 H   0  0  0  0  0
   38.6466   21.9846    4.1133 H   0  0  0  0  0
   39.4528   24.1939    4.7067 H   0  0  0  0  0
   40.9953   23.8656    3.7726 H   0  0  0  0  0
   40.4871   21.8476    5.7311 H   0  0  0  0  0
   40.5237   23.4999    6.4765 H   0  0  0  0  0
   42.7656   23.7465    5.7954 H   0  0  0  0  0
   44.7727   22.8335    5.6022 H   0  0  0  0  0
   43.1157   19.8663    4.6823 H   0  0  0  0  0
   41.4950   20.5518    4.8391 H   0  0  0  0  0
   39.4000   25.5475    2.0910 H   0  0  0  0  0
   41.0175   25.0322   -0.2660 H   0  0  0  0  0
   41.3863   27.5708   -0.2474 H   0  0  0  0  0
   39.9642   27.5426    0.8789 H   0  0  0  0  0
   38.6965   26.3274   -0.7724 H   0  0  0  0  0
   38.5798   28.7973   -0.7505 H   0  0  0  0  0
   39.9707   28.8898   -1.8586 H   0  0  0  0  0
   38.4263   28.2064   -2.4233 H   0  0  0  0  0
   41.0303   26.6098   -2.6613 H   0  0  0  0  0
   40.3627   25.1051   -1.9822 H   0  0  0  0  0
   39.3884   26.0836   -3.1066 H   0  0  0  0  0
   43.0912   24.8306   -0.4061 H   0  0  0  0  0
   44.5704   25.0793    2.1510 H   0  0  0  0  0
   44.7242   23.3695   -0.0801 H   0  0  0  0  0
   46.5439   22.4822    1.4980 H   0  0  0  0  0
   44.8571   22.6570    2.1541 H   0  0  0  0  0
   46.1562   24.8800   -1.2408 H   0  0  0  0  0
   47.2430   24.9759    0.1666 H   0  0  0  0  0
   47.0360   23.4312   -0.6950 H   0  0  0  0  0
   47.1724   24.5793    2.6073 H   0  0  0  0  0
   45.5205   24.7504    3.2500 H   0  0  0  0  0
   46.5504   23.4015    3.7893 H   0  0  0  0  0
   45.0999   26.8824    2.8435 H   0  0  0  0  0
   46.2449   28.9211    0.9563 H   0  0  0  0  0
   45.5523   30.5120    2.8072 H   0  0  0  0  0
   44.6582   29.0976    3.5400 H   0  0  0  0  0
   42.4198   29.2282    3.2407 H   0  0  0  0  0
   44.9857   30.6199    0.1397 H   0  0  0  0  0
   40.4739   29.7467    1.8254 H   0  0  0  0  0
   43.0568   31.1422   -1.2498 H   0  0  0  0  0
   40.8035   30.6642   -0.4378 H   0  0  0  0  0
   49.2474   29.1492    2.7685 H   0  0  0  0  0
   48.3521   29.4188    1.2695 H   0  0  0  0  0
  2  1  1  0  0  0
  2  5  1  0  0  0
  3  2  1  0  0  0
  3  4  2  0  0  0
  5  6  1  0  0  0
  6  7  1  0  0  0
  7  8  1  0  0  0
  8  9  1  0  0  0
  9 11  2  0  0  0
  9 10  1  0  0  0
 13 12  1  0  0  0
 13 16  1  0  0  0
 14 13  1  0  0  0
 14 15  2  0  0  0
 16 17  1  0  0  0
 17 18  1  0  0  0
 18 19  1  0  0  0
 19 20  1  0  0  0
 20 22  1  0  0  0
 20 21  2  0  0  0
 12  3  1  0  0  0
 24 23  1  0  0  0
 24 27  1  0  0  0
 25 24  1  0  0  0
 25 26  2  0  0  0
 27 28  1  0  0  0
 28 29  1  0  0  0
 28 30  1  0  0  0
 23 14  1  0  0  0
 32 31  1  0  0  0
 32 35  1  0  0  0
 33 32  1  0  0  0
 33 34  2  0  0  0
 35 37  1  0  0  0
 35 36  1  0  0  0
 36 38  1  0  0  0
 31 25  1  0  0  0
 39 40  1  0  0  0
 40 43  1  0  0  0
 40 41  1  0  0  0
 41 42  2  0  0  0
 43 44  1  0  0  0
 44 45  4  0  0  0
 44 46  4  0  0  0
 46 48  4  0  0  0
 48 49  4  0  0  0
 47 49  4  0  0  0
 45 47  4  0  0  0
 33 39  1  0  0  0
 41 50  1  0  0  0
  1 51  1  0  0  0
  1 52  1  0  0  0
  1 53  1  0  0  0
  2 54  1  0  0  0
  5 55  1  0  0  0
  5 56  1  0  0  0
  6 57  1  0  0  0
  6 58  1  0  0  0
  7 59  1  0  0  0
  7 60  1  0  0  0
  8 61  1  0  0  0
 10 62  1  0  0  0
 10 63  1  0  0  0
 11 64  1  0  0  0
 12 65  1  0  0  0
 13 66  1  0  0  0
 16 67  1  0  0  0
 16 68  1  0  0  0
 17 69  1  0  0  0
 17 70  1  0  0  0
 18 71  1  0  0  0
 18 72  1  0  0  0
 19 73  1  0  0  0
 21 74  1  0  0  0
 22 75  1  0  0  0
 22 76  1  0  0  0
 23 77  1  0  0  0
 24 78  1  0  0  0
 27 79  1  0  0  0
 27 80  1  0  0  0
 28 81  1  0  0  0
 29 82  1  0  0  0
 29 83  1  0  0  0
 29 84  1  0  0  0
 30 85  1  0  0  0
 30 86  1  0  0  0
 30 87  1  0  0  0
 31 88  1  0  0  0
 32 89  1  0  0  0
 35 90  1  0  0  0
 36 91  1  0  0  0
 36 92  1  0  0  0
 37 93  1  0  0  0
 37 94  1  0  0  0
 37 95  1  0  0  0
 38 96  1  0  0  0
 38 97  1  0  0  0
 38 98  1  0  0  0
 39 99  1  0  0  0
 40100  1  0  0  0
 43101  1  0  0  0
 43102  1  0  0  0
 45103  1  0  0  0
 46104  1  0  0  0
 47105  1  0  0  0
 48106  1  0  0  0
 49107  1  0  0  0
 50108  1  0  0  0
 50109  1  0  0  0
M  END
$$$$
