### 
### Created by X-TOOL on Mon Sep 10 21:12:50 2018
### 

@<TRIPOS>MOLECULE
1okv_ligand
  111   111     1     0     0
SMALL
GAST_HUCK


@<TRIPOS>ATOM
      1 N          35.8970   21.6700   -1.4110 N.4       1 ARG         0.2379
      2 CA         37.0910   21.2880   -0.6230 C.3       1 ARG         0.0651
      3 C          37.5280   22.4120    0.3190 C.2       1 ARG         0.2267
      4 O          37.1800   23.5700    0.0830 O.2       1 ARG        -0.3907
      5 CB         38.2560   20.9670   -1.5860 C.3       1 ARG         0.0110
      6 CG         38.5140   22.0400   -2.6470 C.3       1 ARG        -0.0125
      7 CD         39.9360   22.0380   -3.2310 C.3       1 ARG         0.0629
      8 NE         39.9490   22.6470   -4.5570 N.pl3     1 ARG        -0.2723
      9 CZ         40.7750   23.6140   -4.9520 C.cat     1 ARG         0.2882
     10 NH1        41.7890   24.0390   -4.2060 N.pl3     1 ARG        -0.2849
     11 NH2        40.6260   24.1270   -6.1590 N.pl3     1 ARG        -0.2849
     12 N          38.1400   22.0560    1.4500 N.am      1 ARG        -0.2610
     13 CA         38.7900   23.0490    2.2770 C.3       1 ARG         0.1312
     14 C          39.8680   23.6780    1.4200 C.2       1 ARG         0.2039
     15 O          40.5350   22.9590    0.6880 O.2       1 ARG        -0.3944
     16 CB         39.4380   22.4240    3.5060 C.3       1 ARG        -0.0092
     17 CG         40.1880   23.4580    4.3810 C.3       1 ARG        -0.0156
     18 CD         40.8220   22.8800    5.6310 C.3       1 ARG         0.0627
     19 NE         42.2850   22.8760    5.5680 N.pl3     1 ARG        -0.2723
     20 CZ         43.0380   21.8320    5.2390 C.cat     1 ARG         0.2882
     21 NH1        44.3550   21.9520    5.3040 N.pl3     1 ARG        -0.2849
     22 NH2        42.5080   20.6580    4.8930 N.pl3     1 ARG        -0.2849
     23 N          39.9880   25.0030    1.4600 N.am      1 LEU        -0.2637
     24 CA         40.9480   25.6730    0.6130 C.3       1 LEU         0.1312
     25 C          42.3290   25.7510    1.2490 C.2       1 LEU         0.2039
     26 O          42.5550   26.2690    2.3480 O.2       1 LEU        -0.3944
     27 CB         40.4990   27.0290    0.0800 C.3       1 LEU        -0.0101
     28 CG         39.5510   26.9080   -1.1200 C.3       1 LEU        -0.0425
     29 CD1        39.0990   28.3020   -1.5710 C.3       1 LEU        -0.0625
     30 CD2        40.1250   26.1190   -2.3040 C.3       1 LEU        -0.0625
     31 N          43.2840   25.2170    0.5180 N.am      1 ILE        -0.2635
     32 CA         44.5970   25.2000    1.0680 C.3       1 ILE         0.1335
     33 C          45.2730   26.5450    0.8570 C.2       1 ILE         0.2043
     34 O          45.6660   26.8950   -0.2550 O.2       1 ILE        -0.3944
     35 CB         45.3560   23.9800    0.5650 C.3       1 ILE        -0.0037
     36 CG1        45.7500   23.1680    1.7940 C.3       1 ILE        -0.0491
     37 CG2        46.5360   24.3440   -0.3710 C.3       1 ILE        -0.0582
     38 CD1        46.2880   24.0390    2.9450 C.3       1 ILE        -0.0648
     39 N          45.4210   27.2760    1.9590 N.am      1 PHE        -0.2619
     40 CA         46.0160   28.6080    1.9750 C.3       1 PHE         0.1401
     41 C          47.2860   28.5880    2.7980 C.2       1 PHE         0.2012
     42 O          47.2510   28.1760    3.9550 O.2       1 PHE        -0.3946
     43 CB         45.0240   29.5750    2.6310 C.3       1 PHE         0.0214
     44 CG         43.8330   29.8880    1.7820 C.ar      1 PHE        -0.0386
     45 CD1        42.5660   29.6470    2.2450 C.ar      1 PHE        -0.0601
     46 CD2        43.9830   30.4230    0.5190 C.ar      1 PHE        -0.0601
     47 CE1        41.4820   29.9330    1.4550 C.ar      1 PHE        -0.0686
     48 CE2        42.9130   30.7090   -0.2600 C.ar      1 PHE        -0.0686
     49 CZ         41.6660   30.4550    0.1950 C.ar      1 PHE        -0.0687
     50 N          48.3800   29.0910    2.2350 N.am      1 NH2        -0.2988
     51 H1         35.6378   20.9087   -2.0187 H         1 ARG         0.2015
     52 H2         36.1068   22.4855   -1.9650 H         1 ARG         0.2015
     53 H3         35.1335   21.8757   -0.7858 H         1 ARG         0.2015
     54 H4         36.8525   20.3949   -0.0269 H         1 ARG         0.1098
     55 H5         38.0264   20.0225   -2.1009 H         1 ARG         0.0347
     56 H6         39.1721   20.8461   -0.9893 H         1 ARG         0.0347
     57 H7         38.3328   23.0241   -2.1901 H         1 ARG         0.0302
     58 H8         37.8044   21.8828   -3.4727 H         1 ARG         0.0302
     59 H9         40.2941   21.0007   -3.3064 H         1 ARG         0.0689
     60 H10        40.6008   22.6079   -2.5652 H         1 ARG         0.0689
     61 H11        39.2635   22.3007   -5.2433 H         1 ARG         0.2642
     62 H12        42.4032   24.7902   -4.5516 H         1 ARG         0.2615
     63 H13        41.9609   23.6173   -3.2821 H         1 ARG         0.2615
     64 H14        39.8485   23.8156   -6.7586 H         1 ARG         0.2615
     65 H15        41.2872   24.8387   -6.5013 H         1 ARG         0.2615
     66 H16        38.1494   21.0955    1.7280 H         1 ARG         0.1884
     67 H17        38.0597   23.8076    2.5950 H         1 ARG         0.0800
     68 H18        40.1550   21.6586    3.1742 H         1 ARG         0.0313
     69 H19        38.6532   21.9518    4.1152 H         1 ARG         0.0313
     70 H20        39.4710   24.2342    4.6866 H         1 ARG         0.0301
     71 H21        40.9827   23.9125    3.7712 H         1 ARG         0.0301
     72 H22        40.4717   21.8450    5.7578 H         1 ARG         0.0689
     73 H23        40.5080   23.4821    6.4964 H         1 ARG         0.0689
     74 H24        42.7703   23.7550    5.7977 H         1 ARG         0.2642
     75 H25        44.9577   21.1552    5.0535 H         1 ARG         0.2615
     76 H26        44.7768   22.8421    5.6051 H         1 ARG         0.2615
     77 H27        41.4850   20.5508    4.8385 H         1 ARG         0.2615
     78 H28        43.1217   19.8586    4.6803 H         1 ARG         0.2615
     79 H29        39.4115   25.5369    2.0786 H         1 LEU         0.1883
     80 H30        41.0564   25.0290   -0.2721 H         1 LEU         0.0800
     81 H31        41.3882   27.5976   -0.2298 H         1 LEU         0.0315
     82 H32        39.9803   27.5697    0.8853 H         1 LEU         0.0315
     83 H33        38.6611   26.3621   -0.7735 H         1 LEU         0.0298
     84 H34        38.4200   28.2068   -2.4312 H         1 LEU         0.0232
     85 H35        39.9778   28.8963   -1.8616 H         1 LEU         0.0232
     86 H36        38.5748   28.8030   -0.7438 H         1 LEU         0.0232
     87 H37        40.4433   25.1234   -1.9613 H         1 LEU         0.0232
     88 H38        40.9897   26.6577   -2.7189 H         1 LEU         0.0232
     89 H39        39.3536   26.0102   -3.0806 H         1 LEU         0.0232
     90 H40        43.0950   24.8381   -0.3879 H         1 ILE         0.1883
     91 H41        44.4973   25.0738    2.1562 H         1 ILE         0.0803
     92 H42        44.6616   23.3693   -0.0307 H         1 ILE         0.0345
     93 H43        46.5309   22.4497    1.5038 H         1 ILE         0.0267
     94 H44        44.8645   22.6223    2.1520 H         1 ILE         0.0267
     95 H45        46.1602   24.9260   -1.2254 H         1 ILE         0.0235
     96 H46        47.0121   23.4221   -0.7364 H         1 ILE         0.0235
     97 H47        47.2734   24.9423    0.1842 H         1 ILE         0.0235
     98 H48        46.5532   23.3967    3.7977 H         1 ILE         0.0230
     99 H49        45.5143   24.7574    3.2538 H         1 ILE         0.0230
    100 H50        47.1807   24.5848    2.6055 H         1 ILE         0.0230
    101 H51        45.1062   26.8901    2.8262 H         1 PHE         0.1885
    102 H52        46.2394   28.9322    0.9479 H         1 PHE         0.0823
    103 H53        45.5503   30.5158    2.8500 H         1 PHE         0.0474
    104 H54        44.6711   29.1249    3.5706 H         1 PHE         0.0474
    105 H55        42.4206   29.2305    3.2352 H         1 PHE         0.0557
    106 H56        44.9802   30.6188    0.1418 H         1 PHE         0.0557
    107 H57        40.4795   29.7477    1.8234 H         1 PHE         0.0599
    108 H58        43.0560   31.1398   -1.2444 H         1 PHE         0.0599
    109 H59        40.8083   30.6630   -0.4343 H         1 PHE         0.0559
    110 H60        49.2432   29.0998    2.7397 H         1 NH2         0.1815
    111 H61        48.3398   29.4607    1.3067 H         1 NH2         0.1815
@<TRIPOS>BOND
     1    2    1 1  
     2    2    5 1  
     3    3    2 1  
     4    3    4 2  
     5    5    6 1  
     6    6    7 1  
     7    7    8 1  
     8    8    9 ar 
     9    9   11 ar 
    10    9   10 ar 
    11   13   12 1  
    12   13   16 1  
    13   14   13 1  
    14   14   15 2  
    15   16   17 1  
    16   17   18 1  
    17   18   19 1  
    18   19   20 ar 
    19   20   22 ar 
    20   20   21 ar 
    21   12    3 am 
    22   24   23 1  
    23   24   27 1  
    24   25   24 1  
    25   25   26 2  
    26   27   28 1  
    27   28   29 1  
    28   28   30 1  
    29   23   14 am 
    30   32   31 1  
    31   32   35 1  
    32   33   32 1  
    33   33   34 2  
    34   35   37 1  
    35   35   36 1  
    36   36   38 1  
    37   31   25 am 
    38   39   40 1  
    39   40   43 1  
    40   40   41 1  
    41   41   42 2  
    42   43   44 1  
    43   44   45 ar 
    44   44   46 ar 
    45   46   48 ar 
    46   48   49 ar 
    47   47   49 ar 
    48   45   47 ar 
    49   33   39 am 
    50   41   50 am 
    51    1   51 1  
    52    1   52 1  
    53    1   53 1  
    54    2   54 1  
    55    5   55 1  
    56    5   56 1  
    57    6   57 1  
    58    6   58 1  
    59    7   59 1  
    60    7   60 1  
    61    8   61 1  
    62   10   62 1  
    63   10   63 1  
    64   11   64 1  
    65   11   65 1  
    66   12   66 1  
    67   13   67 1  
    68   16   68 1  
    69   16   69 1  
    70   17   70 1  
    71   17   71 1  
    72   18   72 1  
    73   18   73 1  
    74   19   74 1  
    75   21   75 1  
    76   21   76 1  
    77   22   77 1  
    78   22   78 1  
    79   23   79 1  
    80   24   80 1  
    81   27   81 1  
    82   27   82 1  
    83   28   83 1  
    84   29   84 1  
    85   29   85 1  
    86   29   86 1  
    87   30   87 1  
    88   30   88 1  
    89   30   89 1  
    90   31   90 1  
    91   32   91 1  
    92   35   92 1  
    93   36   93 1  
    94   36   94 1  
    95   37   95 1  
    96   37   96 1  
    97   37   97 1  
    98   38   98 1  
    99   38   99 1  
   100   38  100 1  
   101   39  101 1  
   102   40  102 1  
   103   43  103 1  
   104   43  104 1  
   105   45  105 1  
   106   46  106 1  
   107   47  107 1  
   108   48  108 1  
   109   49  109 1  
   110   50  110 1  
   111   50  111 1  
@<TRIPOS>SUBSTRUCTURE
     1 ARG         1

