5zag_ligand
  -I-interpret- 

 46 48  0  0  0  0  0  0  0  0999 V2000
  -28.0150  -17.0720   -1.0820 C   0  0  0  0  0
  -26.4960  -17.5270    0.8510 C   0  0  0  0  0
  -27.3110  -18.0450    2.9670 C   0  0  0  0  0
  -28.5310  -16.8410   -3.7830 C   0  0  0  0  0
  -26.9320  -14.3100   -0.2730 C   0  0  0  0  0
  -25.8220  -13.6110    0.5230 C   0  0  0  0  0
  -25.0510  -12.5130   -0.2160 C   0  0  0  0  0
  -25.1050  -14.9660   -1.9510 C   0  0  0  0  0
  -25.1650  -13.5860   -2.6050 C   0  0  0  0  0
  -31.9270  -20.1830   -2.7070 C   0  0  0  0  0
  -27.6170  -16.0390   -3.1780 N   0  0  0  0  0
  -30.9440  -19.3040   -2.5730 N   0  0  0  0  0
  -32.4860  -20.6640   -1.6120 N   0  0  0  0  0
  -30.4340  -18.7960   -4.7340 O   0  0  0  0  0
  -30.2390  -18.7020   -3.5340 C   0  0  0  0  0
  -32.3520  -20.5620   -3.8980 N   0  0  0  0  0
  -29.1990  -17.7730   -3.0090 C   0  0  0  0  0
  -28.9120  -17.8740   -1.6930 N   0  0  0  0  0
  -28.7790  -16.6980   -5.1120 N   0  0  0  0  0
  -27.3160  -16.1380   -1.8550 C   0  0  0  0  0
  -27.8010  -17.3740    0.3670 C   0  0  0  0  0
  -26.2720  -17.8470    2.1380 N   0  0  0  0  0
  -28.5790  -17.9330    2.5260 N   0  0  0  0  0
  -28.8520  -17.6210    1.2490 C   0  0  0  0  0
  -26.4100  -15.1940   -1.3460 N   0  0  0  0  0
  -25.3650  -12.3510   -1.7030 C   0  0  0  0  0
  -25.6515  -17.3851    0.1766 H   0  0  0  0  0
  -27.1252  -18.2997    4.0104 H   0  0  0  0  0
  -27.5379  -13.5371   -0.7458 H   0  0  0  0  0
  -27.4977  -14.9306    0.4219 H   0  0  0  0  0
  -25.0924  -14.3821    0.7706 H   0  0  0  0  0
  -26.3117  -13.1247    1.3667 H   0  0  0  0  0
  -23.9979  -12.7876   -0.1557 H   0  0  0  0  0
  -25.3315  -11.5725    0.2583 H   0  0  0  0  0
  -24.3146  -15.0087   -1.2016 H   0  0  0  0  0
  -24.8759  -15.7369   -2.6867 H   0  0  0  0  0
  -26.0445  -13.6140   -3.2483 H   0  0  0  0  0
  -24.1870  -13.4466   -3.0656 H   0  0  0  0  0
  -32.1591  -20.3576   -0.6957 H   0  0  0  0  0
  -33.2448  -21.3420   -1.6823 H   0  0  0  0  0
  -31.9223  -20.1770   -4.7391 H   0  0  0  0  0
  -28.2795  -15.9905   -5.6508 H   0  0  0  0  0
  -29.4646  -17.2982   -5.5703 H   0  0  0  0  0
  -29.8847  -17.5614    0.9054 H   0  0  0  0  0
  -24.6676  -11.5991   -2.0723 H   0  0  0  0  0
  -26.4277  -12.1146   -1.7568 H   0  0  0  0  0
  1 18  4  0  0  0
 20  1  4  0  0  0
  1 21  1  0  0  0
 21  2  4  0  0  0
  2 22  4  0  0  0
 22  3  4  0  0  0
  3 23  4  0  0  0
 11  4  4  0  0  0
  4 17  4  0  0  0
  4 19  1  0  0  0
  5  6  1  0  0  0
 25  5  1  0  0  0
  6  7  1  0  0  0
 26  7  1  0  0  0
  8  9  1  0  0  0
 25  8  1  0  0  0
  9 26  1  0  0  0
 12 10  4  0  0  0
 10 13  1  0  0  0
 10 16  2  0  0  0
 20 11  4  0  0  0
 15 12  1  0  0  0
 15 14  2  0  0  0
 17 15  1  0  0  0
 18 17  4  0  0  0
 20 25  1  0  0  0
 21 24  4  0  0  0
 23 24  4  0  0  0
  2 27  1  0  0  0
  3 28  1  0  0  0
  5 29  1  0  0  0
  5 30  1  0  0  0
  6 31  1  0  0  0
  6 32  1  0  0  0
  7 33  1  0  0  0
  7 34  1  0  0  0
  8 35  1  0  0  0
  8 36  1  0  0  0
  9 37  1  0  0  0
  9 38  1  0  0  0
 13 39  1  0  0  0
 13 40  1  0  0  0
 16 41  1  0  0  0
 19 42  1  0  0  0
 19 43  1  0  0  0
 24 44  1  0  0  0
 26 45  1  0  0  0
 26 46  1  0  0  0
M  END
$$$$
