1thl_ligand
  -I-interpret- 

 66 69  0  0  0  0  0  0  0  0999 V2000
   35.5430   41.3480   -3.9950 C   0  0  0  0  0
   36.7690   41.8790   -3.1930 C   0  0  0  0  0
   36.8410   43.4220   -3.1790 C   0  0  0  0  0
   36.4390   41.5760   -1.7150 C   0  0  0  0  0
   37.4030   43.8070   -1.8070 C   0  0  0  0  0
   36.8480   42.7470   -0.8270 C   0  0  0  0  0
   38.0990   41.2130   -3.5730 C   0  0  0  0  0
   39.1550   41.8490   -3.7420 O   0  0  0  0  0
   38.0680   39.9010   -3.6690 N   0  0  0  0  0
   39.2440   39.1310   -4.0280 C   0  0  0  0  0
   38.9690   38.0440   -5.0410 C   0  0  0  0  0
   37.7660   37.7520   -5.2970 O   0  0  0  0  0
   40.0120   38.6450   -2.7810 C   0  0  0  0  0
   39.2220   37.6670   -1.9910 C   0  0  0  0  0
   38.1730   37.9490   -1.1820 C   0  0  0  0  0
   39.2520   36.2640   -2.1610 C   0  0  0  0  0
   37.6390   36.7790   -0.7110 N   0  0  0  0  0
   38.2530   35.7330   -1.3330 C   0  0  0  0  0
   39.9570   35.4100   -3.0130 C   0  0  0  0  0
   38.0250   34.3520   -1.2750 C   0  0  0  0  0
   39.7140   34.0570   -2.9770 C   0  0  0  0  0
   38.7550   33.5300   -2.1100 C   0  0  0  0  0
   39.9730   37.4780   -5.5770 O   0  0  0  0  0
   35.8660   41.2060   -5.4970 C   0  0  0  0  0
   34.6530   40.5610   -6.1640 C   0  0  0  0  0
   35.0120   39.3030   -6.8230 C   0  0  0  0  0
   33.8400   38.6100   -7.4430 C   0  0  0  0  0
   33.6910   38.7090   -8.8210 C   0  0  0  0  0
   33.0350   37.7130   -6.7330 C   0  0  0  0  0
   32.6850   38.0300   -9.4880 C   0  0  0  0  0
   32.0530   36.9760   -7.3920 C   0  0  0  0  0
   31.9210   37.0790   -8.7670 C   0  0  0  0  0
   35.9980   42.5270   -6.1730 C   0  0  0  0  0
   35.0420   43.3170   -6.0850 O   0  0  0  0  0
   36.9850   42.8650   -6.8590 O   0  0  0  0  0
   34.7245   42.0593   -3.8843 H   0  0  0  0  0
   35.2757   40.3656   -3.6056 H   0  0  0  0  0
   35.8580   43.8642   -3.3408 H   0  0  0  0  0
   37.4749   43.7946   -3.9836 H   0  0  0  0  0
   36.9874   40.6867   -1.4042 H   0  0  0  0  0
   35.3655   41.4147   -1.6171 H   0  0  0  0  0
   37.1041   44.8150   -1.5194 H   0  0  0  0  0
   38.4929   43.8200   -1.8090 H   0  0  0  0  0
   37.5883   42.4539   -0.0826 H   0  0  0  0  0
   36.0088   43.1297   -0.2462 H   0  0  0  0  0
   37.1922   39.4114   -3.4858 H   0  0  0  0  0
   39.9147   39.8135   -4.5501 H   0  0  0  0  0
   40.2183   39.5084   -2.1485 H   0  0  0  0  0
   40.9281   38.1563   -3.1126 H   0  0  0  0  0
   37.8110   38.9491   -0.9435 H   0  0  0  0  0
   40.6968   35.8147   -3.7036 H   0  0  0  0  0
   37.2888   33.9364   -0.5870 H   0  0  0  0  0
   40.2752   33.3899   -3.6313 H   0  0  0  0  0
   38.5802   32.4543   -2.0921 H   0  0  0  0  0
   40.7801   37.8642   -5.2291 H   0  0  0  0  0
   36.7945   40.6414   -5.5812 H   0  0  0  0  0
   34.2655   41.2479   -6.9164 H   0  0  0  0  0
   33.9076   40.3499   -5.3972 H   0  0  0  0  0
   35.4267   38.6386   -6.0649 H   0  0  0  0  0
   35.7184   39.5363   -7.6197 H   0  0  0  0  0
   34.3802   39.3341   -9.3888 H   0  0  0  0  0
   33.1765   37.5900   -5.6593 H   0  0  0  0  0
   32.4857   38.2225  -10.5422 H   0  0  0  0  0
   31.3905   36.3202   -6.8270 H   0  0  0  0  0
   31.2269   36.4262   -9.2963 H   0  0  0  0  0
   37.6421   42.1654   -6.8387 H   0  0  0  0  0
  1  2  1  0  0  0
  1 24  1  0  0  0
  2  3  1  0  0  0
  2  4  1  0  0  0
  2  7  1  0  0  0
  3  5  1  0  0  0
  4  6  1  0  0  0
  5  6  1  0  0  0
  7  8  2  0  0  0
  7  9  1  0  0  0
  9 10  1  0  0  0
 10 11  1  0  0  0
 10 13  1  0  0  0
 11 12  2  0  0  0
 11 23  1  0  0  0
 13 14  1  0  0  0
 14 15  4  0  0  0
 14 16  4  0  0  0
 15 17  4  0  0  0
 16 18  4  0  0  0
 16 19  4  0  0  0
 17 18  4  0  0  0
 18 20  4  0  0  0
 19 21  4  0  0  0
 20 22  4  0  0  0
 21 22  4  0  0  0
 24 25  1  0  0  0
 24 33  1  0  0  0
 25 26  1  0  0  0
 26 27  1  0  0  0
 27 28  4  0  0  0
 27 29  4  0  0  0
 28 30  4  0  0  0
 29 31  4  0  0  0
 30 32  4  0  0  0
 31 32  4  0  0  0
 33 34  2  0  0  0
 33 35  1  0  0  0
  1 36  1  0  0  0
  1 37  1  0  0  0
  3 38  1  0  0  0
  3 39  1  0  0  0
  4 40  1  0  0  0
  4 41  1  0  0  0
  5 42  1  0  0  0
  5 43  1  0  0  0
  6 44  1  0  0  0
  6 45  1  0  0  0
  9 46  1  0  0  0
 10 47  1  0  0  0
 13 48  1  0  0  0
 13 49  1  0  0  0
 15 50  1  0  0  0
 19 51  1  0  0  0
 20 52  1  0  0  0
 21 53  1  0  0  0
 22 54  1  0  0  0
 23 55  1  0  0  0
 24 56  1  0  0  0
 25 57  1  0  0  0
 25 58  1  0  0  0
 26 59  1  0  0  0
 26 60  1  0  0  0
 28 61  1  0  0  0
 29 62  1  0  0  0
 30 63  1  0  0  0
 31 64  1  0  0  0
 32 65  1  0  0  0
 35 66  1  0  0  0
M  END
$$$$
