5h19_ligand
  -I-interpret- 

 49 53  0  0  0  0  0  0  0  0999 V2000
    4.8710   13.1910   11.7510 C   0  0  0  0  0
    5.8660   14.0060   14.3470 C   0  0  0  0  0
    7.8690   14.8510   13.0740 C   0  0  0  0  0
    4.2150   12.8160   10.4330 C   0  0  0  0  0
    6.8280   14.1720   10.5620 C   0  0  0  0  0
    6.9680   16.6330   16.1650 C   0  0  0  0  0
    6.1580   17.1450   17.0880 C   0  0  0  0  0
    6.9800   18.6610   15.7070 C   0  0  0  0  0
    5.9400   14.1560    9.2910 C   0  0  0  0  0
    6.1540   18.5710   16.7570 C   0  0  0  0  0
    7.3580   15.1720   16.0540 C   0  0  0  0  0
    4.4550   12.6560    7.9700 C   0  0  0  0  0
    5.4500   12.2310    6.8730 C   0  0  0  0  0
    5.8980   13.1610    5.9160 C   0  0  0  0  0
    5.9250   10.9020    6.8370 C   0  0  0  0  0
    6.8490   10.5100    5.8530 C   0  0  0  0  0
    6.8270   12.7800    4.9370 C   0  0  0  0  0
    7.2940   11.4550    4.9070 C   0  0  0  0  0
    4.6870   13.3770   14.1690 N   0  0  0  0  0
    4.1980   12.9390   13.0340 C   0  0  0  0  0
    6.5860   14.2020   13.1860 C   0  0  0  0  0
    6.0510   13.8370   11.8310 C   0  0  0  0  0
    3.0610   12.3450   13.1170 N   0  0  0  0  0
    2.7670   12.3840   14.5150 N   0  0  0  0  0
    6.2460   14.3210   15.5940 N   0  0  0  0  0
    3.7690   12.9910   15.0180 C   0  0  0  0  0
    5.1520   12.8940    9.2640 N   0  0  0  0  0
    8.8850   15.3750   12.9380 N   0  0  0  0  0
    7.5410   17.5050   15.3030 O   0  0  0  0  0
    3.4043   13.5224   10.2545 H   0  0  0  0  0
    3.8743   11.7839   10.5152 H   0  0  0  0  0
    7.2319   15.1782   10.6740 H   0  0  0  0  0
    7.6036   13.4165   10.4365 H   0  0  0  0  0
    5.6292   16.6309   17.8906 H   0  0  0  0  0
    7.1854   19.6095   15.2107 H   0  0  0  0  0
    6.5694   14.2146    8.4030 H   0  0  0  0  0
    5.2636   15.0106    9.3053 H   0  0  0  0  0
    5.6058   19.3734   17.2508 H   0  0  0  0  0
    7.6553   14.8283   17.0448 H   0  0  0  0  0
    8.1634   15.0947   15.3236 H   0  0  0  0  0
    3.7266   11.8570    8.1083 H   0  0  0  0  0
    3.9693   13.5814    7.6604 H   0  0  0  0  0
    5.5206   14.1834    5.9360 H   0  0  0  0  0
    5.5746   10.1788    7.5734 H   0  0  0  0  0
    7.2179    9.4848    5.8219 H   0  0  0  0  0
    7.1837   13.5053    4.2057 H   0  0  0  0  0
    8.0098   11.1542    4.1420 H   0  0  0  0  0
    5.6800   13.9095   16.3361 H   0  0  0  0  0
    3.8556   13.1769   16.0885 H   0  0  0  0  0
  1  4  1  0  0  0
 20  1  4  0  0  0
  1 22  4  0  0  0
 19  2  4  0  0  0
  2 21  4  0  0  0
  2 25  1  0  0  0
 21  3  1  0  0  0
  3 28  3  0  0  0
  4 27  1  0  0  0
  5  9  1  0  0  0
 22  5  1  0  0  0
  6  7  4  0  0  0
 11  6  1  0  0  0
  6 29  4  0  0  0
  7 10  4  0  0  0
  8 10  4  0  0  0
 29  8  4  0  0  0
 27  9  1  0  0  0
 25 11  1  0  0  0
 12 13  1  0  0  0
 27 12  1  0  0  0
 13 14  4  0  0  0
 13 15  4  0  0  0
 14 17  4  0  0  0
 15 16  4  0  0  0
 16 18  4  0  0  0
 17 18  4  0  0  0
 19 20  4  0  0  0
 19 26  4  0  0  0
 20 23  4  0  0  0
 21 22  4  0  0  0
 23 24  4  0  0  0
 24 26  4  0  0  0
  4 30  1  0  0  0
  4 31  1  0  0  0
  5 32  1  0  0  0
  5 33  1  0  0  0
  7 34  1  0  0  0
  8 35  1  0  0  0
  9 36  1  0  0  0
  9 37  1  0  0  0
 10 38  1  0  0  0
 11 39  1  0  0  0
 11 40  1  0  0  0
 12 41  1  0  0  0
 12 42  1  0  0  0
 14 43  1  0  0  0
 15 44  1  0  0  0
 16 45  1  0  0  0
 17 46  1  0  0  0
 18 47  1  0  0  0
 25 48  1  0  0  0
 26 49  1  0  0  0
M  END
$$$$
