5t3n_ligand
  -I-interpret- 

 34 37  0  0  0  0  0  0  0  0999 V2000
   65.8320   81.8150   24.5660 C   0  0  0  0  0
   65.6370   83.6520   23.1010 C   0  0  0  0  0
   65.5930   84.4750   24.2400 C   0  0  0  0  0
   65.6890   83.9640   25.5570 C   0  0  0  0  0
   65.2700   78.8610   20.3700 S   0  0  0  0  0
   65.5120   80.0110   18.6560 P   0  0  0  0  0
   66.1010   79.0510   17.6840 O   0  0  0  0  0
   63.9090   80.5290   18.1530 O   0  0  0  0  0
   63.4330   81.5930   19.2550 C   0  0  0  0  0
   64.5090   82.5570   19.3420 C   0  0  0  0  0
   64.1220   83.6890   20.2630 O   0  0  0  0  0
   65.5280   84.1720   20.7720 C   0  0  0  0  0
   66.5240   83.1980   20.3160 C   0  0  0  0  0
   67.2630   83.8020   19.2270 O   0  0  0  0  0
   65.7500   82.0340   19.8830 C   0  0  0  0  0
   66.4100   81.2470   18.9570 O   0  0  0  0  0
   65.5290   84.4710   22.1140 N   0  0  0  0  0
   65.4320   85.6900   22.3690 C   0  0  0  0  0
   65.4690   85.8160   23.7190 N   0  0  0  0  0
   65.6490   84.8420   26.6750 N   0  0  0  0  0
   65.8110   82.6190   25.6860 N   0  0  0  0  0
   65.9940   80.0810   24.7760 Cl  0  0  0  0  0
   65.7550   82.3420   23.2990 N   0  0  0  0  0
   64.7427   79.6104   21.3340 H   0  0  0  0  0
   63.2410   81.1171   20.2166 H   0  0  0  0  0
   62.4912   82.0659   18.9767 H   0  0  0  0  0
   64.6709   82.8666   18.3095 H   0  0  0  0  0
   65.8014   85.1335   20.3373 H   0  0  0  0  0
   67.2455   82.9022   21.0776 H   0  0  0  0  0
   67.9242   83.1832   18.9085 H   0  0  0  0  0
   65.5787   81.3688   20.7293 H   0  0  0  0  0
   65.3359   86.4986   21.6444 H   0  0  0  0  0
   65.5506   85.8470   26.5310 H   0  0  0  0  0
   65.7187   84.4668   27.6209 H   0  0  0  0  0
  1 21  4  0  0  0
  1 22  1  0  0  0
 23  1  4  0  0  0
  2  3  4  0  0  0
 17  2  4  0  0  0
  2 23  4  0  0  0
  3  4  4  0  0  0
  3 19  4  0  0  0
  4 20  1  0  0  0
  4 21  4  0  0  0
  6  5  1  0  0  0
  6  7  2  0  0  0
  8  6  1  0  0  0
  6 16  1  0  0  0
  9  8  1  0  0  0
 10  9  1  0  0  0
 11 10  1  0  0  0
 10 15  1  0  0  0
 12 11  1  0  0  0
 12 13  1  0  0  0
 12 17  1  0  0  0
 13 14  1  0  0  0
 13 15  1  0  0  0
 15 16  1  0  0  0
 17 18  4  0  0  0
 18 19  4  0  0  0
  5 24  1  0  0  0
  9 25  1  0  0  0
  9 26  1  0  0  0
 10 27  1  0  0  0
 12 28  1  0  0  0
 13 29  1  0  0  0
 14 30  1  0  0  0
 15 31  1  0  0  0
 18 32  1  0  0  0
 20 33  1  0  0  0
 20 34  1  0  0  0
M  END
$$$$
