6bbv_ligand
  -I-interpret- 

 42 44  0  0  0  0  0  0  0  0999 V2000
   -2.4390    2.6050   11.9800 C   0  0  0  0  0
   -3.2740    2.2510   10.8760 C   0  0  0  0  0
   -6.5020    0.9120    5.6320 N   0  0  0  0  0
   -5.1880    1.8810    8.6660 C   0  0  0  0  0
   -6.6200    1.6760    8.0890 C   0  0  0  0  0
   -5.9780    0.7880    6.9780 C   0  0  0  0  0
   -7.4600   -1.4590    5.0620 C   0  0  0  0  0
   -8.6830   -2.3810    4.9310 C   0  0  0  0  0
   -9.1650   -2.8910    6.2800 C   0  0  0  0  0
   -5.3200    4.3860    8.4890 C   0  0  0  0  0
   -3.0680    0.8530   10.6460 C   0  0  0  0  0
   -2.1500    0.4050   11.5700 C   0  0  0  0  0
   -8.7680    0.2670    6.3740 O   0  0  0  0  0
   -7.9120    0.1620    5.2490 S   0  0  0  0  0
   -8.3300    0.6600    3.9890 O   0  0  0  0  0
   -4.5970    1.4140    7.3020 C   0  0  0  0  0
   -4.7840    3.1840    9.1440 N   0  0  0  0  0
   -4.0080    3.3150   10.2890 C   0  0  0  0  0
   -3.9280    4.5810   10.8180 N   0  0  0  0  0
   -1.7440    1.4770   12.3820 N   0  0  0  0  0
   -2.3180    3.8620   12.5290 N   0  0  0  0  0
   -3.0940    4.7600   11.8870 C   0  0  0  0  0
   -6.0011    1.4584    4.9314 H   0  0  0  0  0
   -4.9203    1.3982    9.6059 H   0  0  0  0  0
   -7.2568    2.5245    7.8387 H   0  0  0  0  0
   -7.4339    1.3043    8.7116 H   0  0  0  0  0
   -6.0986   -0.2953    6.9857 H   0  0  0  0  0
   -6.8660   -1.5464    4.1523 H   0  0  0  0  0
   -6.8958   -1.7614    5.9442 H   0  0  0  0  0
   -8.3960   -3.2411    4.3261 H   0  0  0  0  0
   -9.4917   -1.8091    4.4760 H   0  0  0  0  0
   -8.3654   -3.4545    6.7608 H   0  0  0  0  0
   -9.4437   -2.0451    6.9083 H   0  0  0  0  0
  -10.0302   -3.5378    6.1345 H   0  0  0  0  0
   -5.9612    4.9236    9.1876 H   0  0  0  0  0
   -4.4953    5.0293    8.1820 H   0  0  0  0  0
   -5.8995    4.0933    7.6134 H   0  0  0  0  0
   -3.5514    0.2506    9.8769 H   0  0  0  0  0
   -1.7940   -0.6215   11.6575 H   0  0  0  0  0
   -3.6844    0.8196    7.2572 H   0  0  0  0  0
   -4.1253    2.1218    6.6204 H   0  0  0  0  0
   -3.0497    5.7767   12.2775 H   0  0  0  0  0
  2  1  4  0  0  0
  1 20  4  0  0  0
  1 21  4  0  0  0
  2 11  4  0  0  0
 18  2  4  0  0  0
  6  3  1  0  0  0
  3 14  1  0  0  0
  4  5  1  0  0  0
  4 16  1  0  0  0
 17  4  1  0  0  0
  5  6  1  0  0  0
 16  6  1  0  0  0
  7  8  1  0  0  0
 14  7  1  0  0  0
  8  9  1  0  0  0
 17 10  1  0  0  0
 11 12  4  0  0  0
 12 20  4  0  0  0
 14 13  2  0  0  0
 14 15  2  0  0  0
 17 18  1  0  0  0
 18 19  4  0  0  0
 19 22  4  0  0  0
 21 22  4  0  0  0
  3 23  1  0  0  0
  4 24  1  0  0  0
  5 25  1  0  0  0
  5 26  1  0  0  0
  6 27  1  0  0  0
  7 28  1  0  0  0
  7 29  1  0  0  0
  8 30  1  0  0  0
  8 31  1  0  0  0
  9 32  1  0  0  0
  9 33  1  0  0  0
  9 34  1  0  0  0
 10 35  1  0  0  0
 10 36  1  0  0  0
 10 37  1  0  0  0
 11 38  1  0  0  0
 12 39  1  0  0  0
 16 40  1  0  0  0
 16 41  1  0  0  0
 22 42  1  0  0  0
M  END
$$$$
