6qfw_ligand
  -I-interpret- 

 66 73  0  0  0  0  0  0  0  0999 V2000
   15.7310    0.2850   18.0670 O   0  0  0  0  0
   21.1770    8.0210   12.6690 C   0  0  0  0  0
   21.2530    9.0440   11.5490 C   0  0  0  0  0
   22.0280    8.9190   10.2350 C   0  0  0  0  0
   20.4250   10.2450   11.9560 C   0  0  0  0  0
   20.2450   11.5160   11.1240 C   0  0  0  0  0
   19.8330    9.9750   13.3260 C   0  0  0  0  0
   18.9390   10.9280   14.1070 C   0  0  0  0  0
   21.8750    6.6640   12.6270 C   0  0  0  0  0
   20.2900    8.5970   13.7780 C   0  0  0  0  0
   19.9180    7.9230   15.0960 C   0  0  0  0  0
   19.7050    7.0580   10.0330 Cl  0  0  0  0  0
   17.6490    8.9660   10.9430 N   0  0  0  0  0
   17.3250   10.1080   10.4800 C   0  0  0  0  0
   16.1960   10.3350    9.7870 C   0  0  0  0  0
   16.7600    7.8370   10.7050 C   0  0  0  0  0
   14.2090    9.6780    8.8100 O   0  0  0  0  0
   15.2970    9.3700    9.5070 C   0  0  0  0  0
   15.4990    8.1180    9.9240 C   0  0  0  0  0
   15.2600   -0.0720   16.7680 S   0  0  0  0  0
   16.9280    4.4940   13.8230 C   0  0  0  0  0
   15.8020    1.1970   15.9460 C   0  0  0  0  0
   13.8020    0.0970   16.6990 O   0  0  0  0  0
   14.8690    1.9620   15.1390 C   0  0  0  0  0
   15.2990    3.0310   14.4530 C   0  0  0  0  0
   17.2020    1.6730   15.9810 C   0  0  0  0  0
   17.5000    2.7520   15.2510 C   0  0  0  0  0
   18.7240    5.3850   12.7360 C   0  0  0  0  0
   18.1150    5.1020   13.8910 C   0  0  0  0  0
   15.7940   -1.4470   16.1560 N   0  0  0  0  0
   16.5860    3.4190   14.5240 C   0  0  0  0  0
   18.4790    6.5800   11.9890 N   0  0  0  0  0
   17.2310    6.5360   11.2860 C   0  0  0  0  0
   16.5620    5.5180   11.1440 O   0  0  0  0  0
   19.2660    8.4830   11.9610 Ir  0  0  0  0  0
   23.0889    8.7924   10.4510 H   0  0  0  0  0
   21.6631    8.0545    9.6803 H   0  0  0  0  0
   21.8819    9.8214    9.6413 H   0  0  0  0  0
   21.2174   11.9781   10.9539 H   0  0  0  0  0
   19.7901   11.2608   10.1669 H   0  0  0  0  0
   19.5996   12.2115   11.6605 H   0  0  0  0  0
   19.4760   11.8583   14.2922 H   0  0  0  0  0
   18.0387   11.1356   13.5287 H   0  0  0  0  0
   18.6645   10.4700   15.0573 H   0  0  0  0  0
   21.5067    6.0937   11.7742 H   0  0  0  0  0
   22.9503    6.8129   12.5291 H   0  0  0  0  0
   21.6646    6.1200   13.5478 H   0  0  0  0  0
   19.3909    6.9914   14.8901 H   0  0  0  0  0
   20.8246    7.7113   15.6629 H   0  0  0  0  0
   19.2738    8.5866   15.6728 H   0  0  0  0  0
   17.9997   10.9459   10.6554 H   0  0  0  0  0
   15.9978   11.3472    9.4346 H   0  0  0  0  0
   13.6715    8.8911    8.6936 H   0  0  0  0  0
   14.7799    7.3277    9.7085 H   0  0  0  0  0
   16.9150    4.1198   12.7993 H   0  0  0  0  0
   16.2528    5.2542   14.2159 H   0  0  0  0  0
   13.8205    1.6680   15.0907 H   0  0  0  0  0
   14.5998    3.5910   13.8321 H   0  0  0  0  0
   17.9594    1.1646   16.5776 H   0  0  0  0  0
   18.5304    3.1076   15.2445 H   0  0  0  0  0
   18.3628    4.6013   12.0701 H   0  0  0  0  0
   19.7688    5.4889   13.0289 H   0  0  0  0  0
   18.7742    4.4062   14.4101 H   0  0  0  0  0
   17.9278    6.0632   14.3698 H   0  0  0  0  0
   16.4421   -2.0255   16.6905 H   0  0  0  0  0
   15.4869   -1.7467   15.2307 H   0  0  0  0  0
 20  1  2  0  0  0
  3  2  4  0  0  0
  2  9  1  0  0  0
 10  2  4  0  0  0
  3  4  1  0  0  0
  5  3  4  0  0  0
  5  6  1  0  0  0
  7  5  4  0  0  0
  7  8  1  0  0  0
 10  7  4  0  0  0
 10 11  1  0  0  0
 13 14  4  0  0  0
 13 16  4  0  0  0
 14 15  4  0  0  0
 15 18  4  0  0  0
 16 19  4  0  0  0
 16 33  1  0  0  0
 18 17  1  0  0  0
 19 18  4  0  0  0
 22 20  1  0  0  0
 20 23  2  0  0  0
 20 30  1  0  0  0
 29 21  1  0  0  0
 21 31  1  0  0  0
 24 22  4  0  0  0
 26 22  4  0  0  0
 25 24  4  0  0  0
 31 25  4  0  0  0
 27 26  4  0  0  0
 31 27  4  0  0  0
 28 29  1  0  0  0
 32 28  1  0  0  0
 33 32  1  0  0  0
 33 34  2  0  0  0
 35  2  1  0  0  0
 35  3  1  0  0  0
 35  5  1  0  0  0
 35  7  1  0  0  0
 35 10  1  0  0  0
 35 12  1  0  0  0
 35 13  1  0  0  0
 35 32  1  0  0  0
  4 36  1  0  0  0
  4 37  1  0  0  0
  4 38  1  0  0  0
  6 39  1  0  0  0
  6 40  1  0  0  0
  6 41  1  0  0  0
  8 42  1  0  0  0
  8 43  1  0  0  0
  8 44  1  0  0  0
  9 45  1  0  0  0
  9 46  1  0  0  0
  9 47  1  0  0  0
 11 48  1  0  0  0
 11 49  1  0  0  0
 11 50  1  0  0  0
 14 51  1  0  0  0
 15 52  1  0  0  0
 17 53  1  0  0  0
 19 54  1  0  0  0
 21 55  1  0  0  0
 21 56  1  0  0  0
 24 57  1  0  0  0
 25 58  1  0  0  0
 26 59  1  0  0  0
 27 60  1  0  0  0
 28 61  1  0  0  0
 28 62  1  0  0  0
 29 63  1  0  0  0
 29 64  1  0  0  0
 30 65  1  0  0  0
 30 66  1  0  0  0
M  END
$$$$
