### 
### Created by X-TOOL on Mon Aug  2 16:17:23 2021
### 

@<TRIPOS>MOLECULE
6qfw_ligand
   68    75     1     0     0
SMALL
GAST_HUCK


@<TRIPOS>ATOM
      1 O1         15.7310    0.2850   18.0670 O.2       1 JR8        -0.1514
      2 C13        21.1770    8.0210   12.6690 C.ar      1 JR8        -0.0687
      3 C14        21.2530    9.0440   11.5490 C.ar      1 JR8        -0.0687
      4 C21        22.0280    8.9190   10.2350 C.3       1 JR8        -0.0435
      5 C15        20.4250   10.2450   11.9560 C.ar      1 JR8        -0.0687
      6 C20        20.2450   11.5160   11.1240 C.3       1 JR8        -0.0435
      7 C16        19.8330    9.9750   13.3260 C.ar      1 JR8        -0.0687
      8 C19        18.9390   10.9280   14.1070 C.3       1 JR8        -0.0435
      9 C22        21.8750    6.6640   12.6270 C.3       1 JR8        -0.0435
     10 C17        20.2900    8.5970   13.7780 C.ar      1 JR8        -0.0687
     11 C18        19.9180    7.9230   15.0960 C.3       1 JR8        -0.0435
     12 CL1        19.7050    7.0580   10.0330 Cl        1 JR8        -0.1454
     13 N1         17.6490    8.9660   10.9430 N.ar      1 JR8        -0.2925
     14 C1         17.3250   10.1080   10.4800 C.ar      1 JR8         0.0054
     15 C2         16.1960   10.3350    9.7870 C.ar      1 JR8        -0.0015
     16 C5         16.7600    7.8370   10.7050 C.ar      1 JR8         0.1113
     17 O5         14.2090    9.6780    8.8100 O.3       1 JR8        -0.3219
     18 C3         15.2970    9.3700    9.5070 C.ar      1 JR8         0.1135
     19 C4         15.4990    8.1180    9.9240 C.ar      1 JR8         0.0143
     20 S1         15.2600   -0.0720   16.7680 S.o2      1 JR8         0.0628
     21 C25        16.9280    4.4940   13.8230 C.3       1 JR8        -0.0173
     22 C10        15.8020    1.1970   15.9460 C.ar      1 JR8         0.1009
     23 O2         13.8020    0.0970   16.6990 O.2       1 JR8        -0.1514
     24 C11        14.8690    1.9620   15.1390 C.ar      1 JR8        -0.0420
     25 C12        15.2990    3.0310   14.4530 C.ar      1 JR8        -0.0585
     26 C9         17.2020    1.6730   15.9810 C.ar      1 JR8        -0.0420
     27 C8         17.5000    2.7520   15.2510 C.ar      1 JR8        -0.0585
     28 C23        18.7240    5.3850   12.7360 C.3       1 JR8         0.0324
     29 C24        18.1150    5.1020   13.8910 C.3       1 JR8        -0.0230
     30 N3         15.7940   -1.4470   16.1560 N.am      1 JR8        -0.2617
     31 C7         16.5860    3.4190   14.5240 C.ar      1 JR8        -0.0428
     32 N2         18.4790    6.5800   11.9890 N.am      1 JR8        -0.2841
     33 C6         17.2310    6.5360   11.2860 C.2       1 JR8         0.2207
     34 O3         16.5620    5.5180   11.1440 O.2       1 JR8        -0.3791
     35 IR1        19.2660    8.4830   11.9610 Ir        1 JR8         2.0000
     36 H1         22.5386    7.9453   10.2017 H         1 JR8         0.0374
     37 H2         22.7728    9.7259   10.1704 H         1 JR8         0.0374
     38 H3         21.3296    8.9959    9.3886 H         1 JR8         0.0374
     39 H4         20.7947   11.4149   10.1766 H         1 JR8         0.0374
     40 H5         20.6348   12.3790   11.6837 H         1 JR8         0.0374
     41 H6         19.1761   11.6681   10.9133 H         1 JR8         0.0374
     42 H7         18.7838   11.8469   13.5226 H         1 JR8         0.0374
     43 H8         19.4187   11.1791   15.0645 H         1 JR8         0.0374
     44 H9         17.9685   10.4467   14.2981 H         1 JR8         0.0374
     45 H10        22.4333    6.5679   11.6841 H         1 JR8         0.0374
     46 H11        21.1238    5.8631   12.6915 H         1 JR8         0.0374
     47 H12        22.5710    6.5832   13.4750 H         1 JR8         0.0374
     48 H13        20.3942    6.9328   15.1486 H         1 JR8         0.0374
     49 H14        18.8256    7.8080   15.1535 H         1 JR8         0.0374
     50 H15        20.2663    8.5424   15.9357 H         1 JR8         0.0374
     51 H16        18.9651    7.3544    9.4159 H         1 JR8         0.1454
     52 H17        17.9960   10.9413   10.6544 H         1 JR8         0.0803
     53 H18        15.9989   11.3417    9.4366 H         1 JR8         0.0667
     54 H19        13.6771    8.8993    8.6948 H         1 JR8         0.2528
     55 H20        14.7839    7.3321    9.7097 H         1 JR8         0.0689
     56 H21        16.8032    4.2092   12.7679 H         1 JR8         0.0427
     57 H22        16.1875    5.2640   14.0850 H         1 JR8         0.0427
     58 H23        13.8263    1.6696   15.0909 H         1 JR8         0.0619
     59 H24        14.6036    3.5879   13.8355 H         1 JR8         0.0557
     60 H25        17.9553    1.1674   16.5743 H         1 JR8         0.0619
     61 H26        18.5247    3.1056   15.2445 H         1 JR8         0.0557
     62 H27        18.4861    4.5521   12.0581 H         1 JR8         0.0521
     63 H28        19.8019    5.3828   12.9554 H         1 JR8         0.0521
     64 H29        18.7876    4.4508   14.4686 H         1 JR8         0.0307
     65 H30        17.9706    6.0501   14.4297 H         1 JR8         0.0307
     66 H31        15.4929   -1.7408   15.2488 H         1 JR8         0.1634
     67 H32        16.4294   -2.0142   16.6800 H         1 JR8         0.1634
     68 H33        19.1071    7.3576   11.9606 H         1 JR8         0.1848
@<TRIPOS>BOND
     1   20    1 2  
     2    3    2 ar 
     3    2    9 1  
     4   10    2 ar 
     5    3    4 1  
     6    5    3 ar 
     7    5    6 1  
     8    7    5 ar 
     9    7    8 1  
    10   10    7 ar 
    11   10   11 1  
    12   13   14 ar 
    13   13   16 ar 
    14   14   15 ar 
    15   15   18 ar 
    16   16   19 ar 
    17   16   33 1  
    18   18   17 1  
    19   19   18 ar 
    20   22   20 1  
    21   20   23 2  
    22   20   30 am 
    23   29   21 1  
    24   21   31 1  
    25   24   22 ar 
    26   26   22 ar 
    27   25   24 ar 
    28   31   25 ar 
    29   27   26 ar 
    30   31   27 ar 
    31   28   29 1  
    32   32   28 1  
    33   33   32 am 
    34   33   34 2  
    35   35    2 1  
    36   35    3 1  
    37   35    5 1  
    38   35    7 1  
    39   35   10 1  
    40   35   12 1  
    41   35   13 1  
    42   35   32 1  
    43    4   36 1  
    44    4   37 1  
    45    4   38 1  
    46    6   39 1  
    47    6   40 1  
    48    6   41 1  
    49    8   42 1  
    50    8   43 1  
    51    8   44 1  
    52    9   45 1  
    53    9   46 1  
    54    9   47 1  
    55   11   48 1  
    56   11   49 1  
    57   11   50 1  
    58   12   51 1  
    59   14   52 1  
    60   15   53 1  
    61   17   54 1  
    62   19   55 1  
    63   21   56 1  
    64   21   57 1  
    65   24   58 1  
    66   25   59 1  
    67   26   60 1  
    68   27   61 1  
    69   28   62 1  
    70   28   63 1  
    71   29   64 1  
    72   29   65 1  
    73   30   66 1  
    74   30   67 1  
    75   32   68 1  
@<TRIPOS>SUBSTRUCTURE
     1 JR8         1

