2wd3_ligand
  -I-interpret- 

 38 40  0  0  0  0  0  0  0  0999 V2000
  -15.3570   11.5170  -17.0620 S   0  0  0  0  0
  -14.0280   11.6180  -16.5390 O   0  0  0  0  0
  -15.6130   11.0990  -18.4290 O   0  0  0  0  0
  -16.3900   12.3520  -16.6420 O   0  0  0  0  0
  -15.8020   10.1600  -16.3340 N   0  0  0  0  0
  -16.5230   17.3560   -5.5350 N   0  0  0  0  0
  -17.3280   15.7710   -6.7710 N   0  0  0  0  0
  -16.1870   16.0450   -7.1710 N   0  0  0  0  0
  -18.3060   17.5710  -14.2610 N   0  0  0  0  0
  -17.5900   16.5750   -5.7360 C   0  0  0  0  0
  -15.6310   17.0140   -6.4520 C   0  0  0  0  0
  -16.1220   15.8410   -9.6530 C   0  0  0  0  0
  -16.7900   17.0660   -9.7480 C   0  0  0  0  0
  -17.3330   17.4740  -10.9590 C   0  0  0  0  0
  -17.2220   16.6660  -12.0880 C   0  0  0  0  0
  -16.5290   15.4360  -12.0080 C   0  0  0  0  0
  -15.9880   15.0220  -10.7850 C   0  0  0  0  0
  -17.8220   17.1550  -13.3060 C   0  0  0  0  0
  -14.9300   15.1510  -16.8460 Cl  0  0  0  0  0
  -15.8080   15.1650  -14.3070 C   0  0  0  0  0
  -15.7470   14.4300  -15.4860 C   0  0  0  0  0
  -16.3300   13.1520  -15.5240 C   0  0  0  0  0
  -16.9750   12.6760  -14.3950 C   0  0  0  0  0
  -17.0240   13.4030  -13.2110 C   0  0  0  0  0
  -15.5060   15.3970   -8.3090 C   0  0  0  0  0
  -16.4430   14.6610  -13.1660 C   0  0  0  0  0
  -15.1517    9.6767  -15.7144 H   0  0  0  0  0
  -16.7355    9.7798  -16.4903 H   0  0  0  0  0
  -18.5130   16.5914   -5.1564 H   0  0  0  0  0
  -14.6381   17.4423   -6.5896 H   0  0  0  0  0
  -16.8847   17.7026   -8.8683 H   0  0  0  0  0
  -17.8489   18.4318  -11.0265 H   0  0  0  0  0
  -15.4653   14.0683  -10.7122 H   0  0  0  0  0
  -15.3518   16.1543  -14.2707 H   0  0  0  0  0
  -17.4596   11.7005  -14.4358 H   0  0  0  0  0
  -17.5131   12.9891  -12.3292 H   0  0  0  0  0
  -15.6194   14.3171   -8.2137 H   0  0  0  0  0
  -14.4548   15.6849   -8.2956 H   0  0  0  0  0
  1  2  2  0  0  0
  1  3  2  0  0  0
  4  1  1  0  0  0
  1  5  1  0  0  0
 22  4  1  0  0  0
  6 10  4  0  0  0
 11  6  4  0  0  0
  8  7  4  0  0  0
  7 10  4  0  0  0
  8 11  4  0  0  0
 25  8  1  0  0  0
 18  9  3  0  0  0
 12 13  4  0  0  0
 17 12  4  0  0  0
 12 25  1  0  0  0
 14 13  4  0  0  0
 15 14  4  0  0  0
 16 15  4  0  0  0
 15 18  1  0  0  0
 16 17  4  0  0  0
 26 16  1  0  0  0
 21 19  1  0  0  0
 21 20  4  0  0  0
 20 26  4  0  0  0
 21 22  4  0  0  0
 22 23  4  0  0  0
 23 24  4  0  0  0
 24 26  4  0  0  0
  5 27  1  0  0  0
  5 28  1  0  0  0
 10 29  1  0  0  0
 11 30  1  0  0  0
 13 31  1  0  0  0
 14 32  1  0  0  0
 17 33  1  0  0  0
 20 34  1  0  0  0
 23 35  1  0  0  0
 24 36  1  0  0  0
 25 37  1  0  0  0
 25 38  1  0  0  0
M  END
$$$$
