5j86_ligand
  -I-interpret- 

 51 54  0  0  0  0  0  0  0  0999 V2000
  -33.3160   -7.5230   24.7270 C   0  0  0  0  0
  -32.7820  -12.3650   23.0140 C   0  0  0  0  0
  -31.5120  -12.0450   23.5220 C   0  0  0  0  0
  -33.9430  -11.9340   23.6860 C   0  0  0  0  0
  -32.5030  -10.0530   26.6170 C   0  0  0  0  0
  -32.8810   -8.3560   27.9790 C   0  0  0  0  0
  -33.9710   -8.1790   25.7790 C   0  0  0  0  0
  -35.4390   -6.8920   23.7630 C   0  0  0  0  0
  -36.1470   -8.8510   26.9160 C   0  0  0  0  0
  -35.3290  -12.3140   23.3230 C   0  0  0  0  0
  -37.2190  -13.9100   23.5240 C   0  0  0  0  0
  -34.9180  -14.5340   24.3340 C   0  0  0  0  0
  -39.0900  -15.1110   26.5350 C   0  0  0  0  0
  -38.5120  -15.2110   25.2780 C   0  0  0  0  0
  -31.4150  -11.3170   24.7110 C   0  0  0  0  0
  -32.5720  -10.9120   25.4060 C   0  0  0  0  0
  -33.8230  -11.2360   24.8900 C   0  0  0  0  0
  -31.8170  -10.2850   27.7080 N   0  0  0  0  0
  -33.1720   -8.8380   26.7560 N   0  0  0  0  0
  -30.2020  -11.0240   25.2310 O   0  0  0  0  0
  -32.8970  -13.0350   21.8490 O   0  0  0  0  0
  -32.0550   -9.2300   28.5860 N   0  0  0  0  0
  -33.3010   -7.3140   28.4450 O   0  0  0  0  0
  -35.3790   -8.1760   25.8120 C   0  0  0  0  0
  -36.1090   -7.5410   24.7990 C   0  0  0  0  0
  -35.8020  -13.5390   23.7020 N   0  0  0  0  0
  -36.0620  -11.4870   22.8190 O   0  0  0  0  0
  -37.9350  -14.0850   24.8410 C   0  0  0  0  0
  -34.0430   -6.8890   23.7220 C   0  0  0  0  0
  -38.1140  -12.8170   26.0430 S   0  0  0  0  0
  -38.9970  -13.9030   27.1130 C   0  0  0  0  0
  -32.2266   -7.5090   24.6953 H   0  0  0  0  0
  -30.6120  -12.3611   22.9946 H   0  0  0  0  0
  -36.0065   -6.3853   22.9824 H   0  0  0  0  0
  -35.9024   -9.9131   26.9302 H   0  0  0  0  0
  -35.8771   -8.4019   27.8718 H   0  0  0  0  0
  -37.2158   -8.7252   26.7429 H   0  0  0  0  0
  -37.2555  -14.8598   22.9904 H   0  0  0  0  0
  -37.7122  -13.1079   22.9749 H   0  0  0  0  0
  -34.1019  -14.7772   23.6536 H   0  0  0  0  0
  -34.5120  -14.1225   25.2581 H   0  0  0  0  0
  -35.4885  -15.4358   24.5562 H   0  0  0  0  0
  -39.5845  -15.9533   27.0189 H   0  0  0  0  0
  -38.5265  -16.1312   24.6939 H   0  0  0  0  0
  -34.7213  -10.9412   25.4325 H   0  0  0  0  0
  -30.3153  -10.5234   26.0423 H   0  0  0  0  0
  -33.8262  -13.1705   21.6495 H   0  0  0  0  0
  -31.6703   -9.1356   29.5260 H   0  0  0  0  0
  -37.1987   -7.5543   24.8208 H   0  0  0  0  0
  -33.5226   -6.3908   22.9040 H   0  0  0  0  0
  -39.4031  -13.6365   28.0888 H   0  0  0  0  0
  7  1  4  0  0  0
  1 29  4  0  0  0
  3  2  4  0  0  0
  2  4  4  0  0  0
  2 21  1  0  0  0
 15  3  4  0  0  0
  4 10  1  0  0  0
  4 17  4  0  0  0
 16  5  1  0  0  0
  5 18  2  0  0  0
  5 19  1  0  0  0
 19  6  1  0  0  0
  6 22  1  0  0  0
  6 23  2  0  0  0
 19  7  1  0  0  0
  7 24  4  0  0  0
  8 25  4  0  0  0
 29  8  4  0  0  0
 24  9  1  0  0  0
 10 26  1  0  0  0
 10 27  2  0  0  0
 26 11  1  0  0  0
 11 28  1  0  0  0
 26 12  1  0  0  0
 14 13  4  0  0  0
 13 31  4  0  0  0
 28 14  4  0  0  0
 15 16  4  0  0  0
 15 20  1  0  0  0
 16 17  4  0  0  0
 18 22  1  0  0  0
 24 25  4  0  0  0
 28 30  4  0  0  0
 30 31  4  0  0  0
  1 32  1  0  0  0
  3 33  1  0  0  0
  8 34  1  0  0  0
  9 35  1  0  0  0
  9 36  1  0  0  0
  9 37  1  0  0  0
 11 38  1  0  0  0
 11 39  1  0  0  0
 12 40  1  0  0  0
 12 41  1  0  0  0
 12 42  1  0  0  0
 13 43  1  0  0  0
 14 44  1  0  0  0
 17 45  1  0  0  0
 20 46  1  0  0  0
 21 47  1  0  0  0
 22 48  1  0  0  0
 25 49  1  0  0  0
 29 50  1  0  0  0
 31 51  1  0  0  0
M  END
$$$$
