6joe_ligand
  -I-interpret- 

 53 56  0  0  0  0  0  0  0  0999 V2000
  -39.5310   30.4630   -5.8580 C   0  0  0  0  0
  -40.8770   30.6130   -5.0970 C   0  0  0  0  0
  -40.6620   30.6410   -3.5600 C   0  0  0  0  0
  -41.9590   30.6080   -2.8540 N   0  3  0  0  0
  -39.7490   29.4990   -3.0630 C   0  0  0  0  0
  -38.4580   29.3960   -3.8660 C   0  0  0  0  0
  -38.7130   29.3490   -5.3240 N   0  3  0  0  0
  -37.4720   29.1770   -6.0980 C   0  0  0  0  0
  -37.3880   27.8450   -6.4990 C   0  0  0  0  0
  -38.1660   27.3910   -7.5770 C   0  0  0  0  0
  -38.1070   26.0330   -7.9180 C   0  0  0  0  0
  -36.5890   26.9550   -5.7650 C   0  0  0  0  0
  -36.5320   25.6070   -6.1350 C   0  0  0  0  0
  -37.3080   25.1400   -7.1960 C   0  0  0  0  0
  -37.2500   23.7900   -7.5470 C   0  0  0  0  0
  -36.4030   23.6160   -8.7480 N   0  0  0  0  0
  -35.2670   22.9500   -8.7060 C   0  0  0  0  0
  -34.9720   22.3730   -7.6540 O   0  0  0  0  0
  -34.4410   22.9120   -9.8190 C   0  0  0  0  0
  -34.5770   23.4910  -11.0730 C   0  0  0  0  0
  -35.5760   24.2010  -11.6660 C   0  0  0  0  0
  -36.6370   24.5170  -11.0970 O   0  0  0  0  0
  -35.4700   24.6160  -13.0160 N   0  0  0  0  0
  -34.4170   24.3540  -13.7500 C   0  0  0  0  0
  -33.3750   23.6410  -13.1360 N   0  0  0  0  0
  -33.5060   23.2000  -11.8750 C   0  0  0  0  0
  -32.4010   22.4070  -11.0670 S   0  0  0  0  0
  -33.2450   22.3110   -9.6580 C   0  0  0  0  0
  -38.9669   31.3880   -5.7385 H   0  0  0  0  0
  -39.7525   30.2523   -6.9043 H   0  0  0  0  0
  -41.5087   29.7591   -5.3416 H   0  0  0  0  0
  -41.3406   31.5525   -5.3978 H   0  0  0  0  0
  -40.1517   31.5767   -3.3316 H   0  0  0  0  0
  -42.5490   31.3676   -3.1936 H   0  0  0  0  0
  -42.4181   29.7144   -3.0303 H   0  0  0  0  0
  -41.8024   30.7193   -1.8523 H   0  0  0  0  0
  -40.2917   28.5604   -3.1751 H   0  0  0  0  0
  -39.4854   29.7052   -2.0257 H   0  0  0  0  0
  -37.9510   28.4747   -3.5790 H   0  0  0  0  0
  -37.8539   30.2782   -3.6542 H   0  0  0  0  0
  -39.2903   28.5172   -5.4470 H   0  0  0  0  0
  -36.6095   29.4381   -5.4848 H   0  0  0  0  0
  -37.4817   29.8304   -6.9704 H   0  0  0  0  0
  -38.8008   28.0790   -8.1353 H   0  0  0  0  0
  -38.6937   25.6662   -8.7602 H   0  0  0  0  0
  -36.0151   27.3125   -4.9101 H   0  0  0  0  0
  -35.8806   24.9209   -5.5937 H   0  0  0  0  0
  -38.2566   23.4317   -7.7628 H   0  0  0  0  0
  -36.8220   23.2224   -6.7207 H   0  0  0  0  0
  -36.7070   24.0228   -9.6326 H   0  0  0  0  0
  -34.3528   24.6748  -14.7897 H   0  0  0  0  0
  -32.5139   23.4571  -13.6509 H   0  0  0  0  0
  -32.8935   21.8374   -8.7413 H   0  0  0  0  0
  1  2  1  0  0  0
  1  7  1  0  0  0
  2  3  1  0  0  0
  3  4  1  0  0  0
  3  5  1  0  0  0
  5  6  1  0  0  0
  6  7  1  0  0  0
  7  8  1  0  0  0
  8  9  1  0  0  0
  9 10  4  0  0  0
  9 12  4  0  0  0
 10 11  4  0  0  0
 11 14  4  0  0  0
 12 13  4  0  0  0
 13 14  4  0  0  0
 14 15  1  0  0  0
 15 16  1  0  0  0
 16 17  1  0  0  0
 17 18  2  0  0  0
 17 19  1  0  0  0
 19 20  4  0  0  0
 19 28  4  0  0  0
 20 21  1  0  0  0
 20 26  4  0  0  0
 21 22  2  0  0  0
 21 23  1  0  0  0
 23 24  2  0  0  0
 24 25  1  0  0  0
 25 26  1  0  0  0
 26 27  4  0  0  0
 27 28  4  0  0  0
  1 29  1  0  0  0
  1 30  1  0  0  0
  2 31  1  0  0  0
  2 32  1  0  0  0
  3 33  1  0  0  0
  4 34  1  0  0  0
  4 35  1  0  0  0
  4 36  1  0  0  0
  5 37  1  0  0  0
  5 38  1  0  0  0
  6 39  1  0  0  0
  6 40  1  0  0  0
  7 41  1  0  0  0
  8 42  1  0  0  0
  8 43  1  0  0  0
 10 44  1  0  0  0
 11 45  1  0  0  0
 12 46  1  0  0  0
 13 47  1  0  0  0
 15 48  1  0  0  0
 15 49  1  0  0  0
 16 50  1  0  0  0
 24 51  1  0  0  0
 25 52  1  0  0  0
 28 53  1  0  0  0
M  END
$$$$
