5i2e_ligand
  -I-interpret- 

 60 65  0  0  0  0  0  0  0  0999 V2000
  -30.9820    3.9470  -23.8520 S   0  0  0  0  0
  -31.7900    5.0740  -23.0710 N   0  0  0  0  0
  -25.6160    4.3160  -34.8600 C   0  0  0  0  0
  -27.4270    4.4580  -33.7640 C   0  0  0  0  0
  -28.2990    4.6910  -32.6100 C   0  0  0  0  0
  -27.6710    5.0790  -31.3690 C   0  0  0  0  0
  -26.6950    4.0170  -35.6910 C   0  0  0  0  0
  -25.5710    4.9520  -32.4560 C   0  0  0  0  0
  -29.8510    4.9460  -31.1830 C   0  0  0  0  0
  -31.9660    6.2130  -23.7070 C   0  0  0  0  0
  -32.2550    8.6160  -23.8050 C   0  0  0  0  0
  -31.8250    7.4720  -22.9010 C   0  0  0  0  0
  -26.1100    4.5860  -33.6460 N   0  0  0  0  0
  -26.3140    5.1830  -31.3460 N   0  0  0  0  0
  -29.6350    4.6190  -32.4950 N   0  0  0  0  0
  -28.6890    5.2230  -30.5320 N   0  0  0  0  0
  -28.4710    5.5970  -29.1360 C   0  0  0  0  0
  -28.7810    4.5050  -28.3200 O   0  0  0  0  0
  -29.3460    6.7280  -28.6080 C   0  0  0  0  0
  -28.9040    7.9950  -29.0520 O   0  0  0  0  0
  -29.2540    6.4970  -27.0880 C   0  0  0  0  0
  -28.1860    7.2670  -26.5280 O   0  0  0  0  0
  -28.9340    4.9960  -26.9670 C   0  0  0  0  0
  -29.9600    4.1740  -26.2350 C   0  0  0  0  0
  -30.0000    4.5620  -24.8590 O   0  0  0  0  0
  -30.2330    3.2990  -22.8220 O   0  0  0  0  0
  -31.8480    3.0090  -24.5240 O   0  0  0  0  0
  -27.8540    4.1090  -34.9890 N   0  0  0  0  0
  -32.1990    6.2500  -24.8960 O   0  0  0  0  0
  -33.4350    9.3880  -23.2610 C   0  0  0  0  0
  -33.9330    9.5350  -21.8650 C   0  0  0  0  0
  -35.1090   10.4240  -21.9720 C   0  0  0  0  0
  -35.2600   10.7410  -23.2710 N   0  0  0  0  0
  -34.3000   10.1540  -24.0370 C   0  0  0  0  0
  -35.8030   10.7590  -20.8190 C   0  0  0  0  0
  -35.3690   10.2480  -19.6030 C   0  0  0  0  0
  -34.2520    9.4190  -19.5040 C   0  0  0  0  0
  -33.5230    9.0420  -20.6260 C   0  0  0  0  0
  -32.1516    4.9221  -22.1294 H   0  0  0  0  0
  -24.5644    4.3277  -35.1464 H   0  0  0  0  0
  -26.6197    3.7497  -36.7450 H   0  0  0  0  0
  -24.4890    5.0657  -32.3893 H   0  0  0  0  0
  -30.8355    4.9802  -30.7164 H   0  0  0  0  0
  -32.5513    8.1886  -24.7629 H   0  0  0  0  0
  -31.4160    9.3070  -23.8876 H   0  0  0  0  0
  -30.7968    7.6063  -22.5650 H   0  0  0  0  0
  -32.4425    7.4313  -22.0037 H   0  0  0  0  0
  -27.4309    5.9218  -29.1084 H   0  0  0  0  0
  -30.3764    6.7232  -28.9633 H   0  0  0  0  0
  -29.4806    8.6760  -28.6979 H   0  0  0  0  0
  -30.1634    6.7886  -26.5626 H   0  0  0  0  0
  -28.1429    7.1115  -25.5817 H   0  0  0  0  0
  -28.0333    4.8932  -26.3617 H   0  0  0  0  0
  -29.6931    3.1195  -26.3044 H   0  0  0  0  0
  -30.9397    4.3374  -26.6840 H   0  0  0  0  0
  -34.2192   10.2689  -25.1179 H   0  0  0  0  0
  -36.6743   11.4123  -20.8665 H   0  0  0  0  0
  -35.9189   10.5029  -18.6970 H   0  0  0  0  0
  -33.9430    9.0579  -18.5231 H   0  0  0  0  0
  -32.6592    8.3827  -20.5405 H   0  0  0  0  0
  1  2  1  0  0  0
 25  1  1  0  0  0
  1 26  2  0  0  0
  1 27  2  0  0  0
  2 10  1  0  0  0
  3  7  4  0  0  0
 13  3  4  0  0  0
  5  4  4  0  0  0
  4 13  4  0  0  0
  4 28  4  0  0  0
  6  5  4  0  0  0
 15  5  4  0  0  0
  6 14  4  0  0  0
 16  6  4  0  0  0
 28  7  4  0  0  0
  8 13  4  0  0  0
 14  8  4  0  0  0
  9 15  4  0  0  0
 16  9  4  0  0  0
 10 12  1  0  0  0
 10 29  2  0  0  0
 12 11  1  0  0  0
 11 30  1  0  0  0
 17 16  1  0  0  0
 18 17  1  0  0  0
 19 17  1  0  0  0
 23 18  1  0  0  0
 19 20  1  0  0  0
 21 19  1  0  0  0
 21 22  1  0  0  0
 23 21  1  0  0  0
 24 23  1  0  0  0
 24 25  1  0  0  0
 30 31  4  0  0  0
 30 34  4  0  0  0
 31 32  4  0  0  0
 31 38  4  0  0  0
 32 33  4  0  0  0
 32 35  4  0  0  0
 33 34  4  0  0  0
 35 36  4  0  0  0
 36 37  4  0  0  0
 37 38  4  0  0  0
  2 39  1  0  0  0
  3 40  1  0  0  0
  7 41  1  0  0  0
  8 42  1  0  0  0
  9 43  1  0  0  0
 11 44  1  0  0  0
 11 45  1  0  0  0
 12 46  1  0  0  0
 12 47  1  0  0  0
 17 48  1  0  0  0
 19 49  1  0  0  0
 20 50  1  0  0  0
 21 51  1  0  0  0
 22 52  1  0  0  0
 23 53  1  0  0  0
 24 54  1  0  0  0
 24 55  1  0  0  0
 34 56  1  0  0  0
 35 57  1  0  0  0
 36 58  1  0  0  0
 37 59  1  0  0  0
 38 60  1  0  0  0
M  END
$$$$
