### 
### Created by X-TOOL on Mon Sep 10 21:13:33 2018
### 

@<TRIPOS>MOLECULE
5t35_ligand
  129   135     1     0     0
SMALL
GAST_HUCK


@<TRIPOS>ATOM
      1 CAA        12.1900  -24.0970  -13.1860 C.3       1 759        -0.0271
      2 CBZ        12.7800  -22.8740  -12.4670 C.2       1 759         0.0119
      3 NBI        11.9740  -21.9220  -11.9440 N.2       1 759        -0.3006
      4 CAV        12.5910  -20.8930  -11.3580 C.2       1 759         0.0738
      5 SBR        14.2020  -21.1670  -11.4740 S.3       1 759        -0.0127
      6 CCH        14.0880  -22.6490  -12.3090 C.2       1 759         0.0479
      7 CCF        15.1210  -23.4320  -12.6950 C.ar      1 759        -0.0244
      8 CAU        16.1730  -23.6240  -11.7980 C.ar      1 759        -0.0654
      9 CAQ        17.2690  -24.4240  -12.1270 C.ar      1 759        -0.0617
     10 CAT        15.2070  -24.0710  -13.9460 C.ar      1 759        -0.0654
     11 CAP        16.3100  -24.8760  -14.2750 C.ar      1 759        -0.0617
     12 CCA        17.3690  -25.0570  -13.3730 C.ar      1 759        -0.0241
     13 CBC        18.4570  -25.8660  -13.6930 C.3       1 759         0.0631
     14 NBM        19.6910  -25.3240  -13.0650 N.am      1 759        -0.2741
     15 C          20.5260  -24.4390  -13.6640 C.2       1 759         0.2037
     16 O          20.3610  -24.0100  -14.8110 O.2       1 759        -0.3944
     17 CA         21.6220  -24.0140  -12.8590 C.3       1 759         0.1362
     18 CB         21.2120  -22.8140  -12.0060 C.3       1 759         0.0158
     19 CG         22.4830  -21.9950  -11.8410 C.3       1 759         0.0799
     20 OD1        23.2650  -22.4900  -10.7380 O.3       1 759        -0.3896
     21 CD2        23.2540  -22.1880  -13.1480 C.3       1 759         0.0629
     22 N          22.8690  -23.5530  -13.6170 N.am      1 759        -0.2473
     23 CBW        23.4900  -24.3530  -14.5060 C.2       1 759         0.2070
     24 OAK        23.0970  -25.4920  -14.7610 O.2       1 759        -0.3942
     25 CCN        24.7910  -23.8610  -15.1550 C.3       1 759         0.1360
     26 CCQ        24.6610  -23.4100  -16.6370 C.3       1 759         0.0026
     27 CAF        26.0730  -23.3150  -17.2250 C.3       1 759        -0.0558
     28 CAG        23.8280  -24.3700  -17.4950 C.3       1 759        -0.0558
     29 CAE        24.0030  -22.0330  -16.7370 C.3       1 759        -0.0558
     30 NBN        25.6310  -25.0530  -15.0980 N.am      1 759        -0.2632
     31 CBT        26.7590  -25.1800  -14.3920 C.2       1 759         0.2043
     32 OAH        27.3250  -24.2720  -13.7710 O.2       1 759        -0.3944
     33 CBD        27.3550  -26.5780  -14.5400 C.3       1 759         0.1368
     34 OBQ        27.5130  -26.5970  -15.9740 O.3       1 759        -0.3572
     35 CBB        27.4510  -27.7970  -16.7090 C.3       1 759         0.0740
     36 CBA        26.4470  -27.5180  -17.8410 C.3       1 759         0.0713
     37 OBP        25.3780  -28.4820  -17.8320 O.3       1 759        -0.3752
     38 CAZ        24.3280  -28.1870  -16.9310 C.3       1 759         0.0711
     39 CAY        23.1160  -29.0280  -17.3700 C.3       1 759         0.0711
     40 OBO        22.9930  -29.1120  -18.8140 O.3       1 759        -0.3755
     41 CAX        21.7870  -28.5580  -19.2670 C.3       1 759         0.0678
     42 CAW        20.6260  -29.5430  -19.0270 C.3       1 759         0.0543
     43 NBL        21.0130  -30.9560  -18.7790 N.am      1 759        -0.2846
     44 CBU        20.9000  -31.5970  -17.5750 C.2       1 759         0.1794
     45 OAI        20.5370  -31.0540  -16.5290 O.2       1 759        -0.3968
     46 CBE        21.2890  -33.1030  -17.5870 C.3       1 759         0.0633
     47 CCL        21.5820  -33.6400  -16.1750 C.3       1 759         0.0994
     48 NBH        22.8600  -33.0970  -15.6750 N.2       1 759        -0.3433
     49 CCG        21.6820  -35.0520  -16.0730 C.2       1 759         0.1630
     50 NBK        21.5110  -35.9100  -17.0840 N.2       1 759        -0.2784
     51 NBJ        21.6650  -37.0860  -16.6590 N.2       1 759        -0.2795
     52 CCB        21.9400  -37.0280  -15.3580 C.2       1 759         0.1468
     53 CAB        22.1820  -38.2400  -14.4610 C.3       1 759         0.0171
     54 NCP        21.9700  -35.7620  -14.9740 N.pl3     1 759        -0.1470
     55 CCJ        22.1800  -35.2040  -13.7750 C.2       1 759         0.1844
     56 SBS        21.5840  -35.8540  -12.2890 S.3       1 759         0.0060
     57 CCC        22.1870  -34.6300  -11.3970 C.2       1 759         0.0043
     58 CAC        22.0460  -34.5230   -9.8720 C.3       1 759        -0.0308
     59 CCD        22.8150  -33.7430  -12.1920 C.2       1 759        -0.0580
     60 CAD        23.4740  -32.4950  -11.5820 C.3       1 759        -0.0507
     61 CCI        22.8260  -34.0530  -13.5180 C.2       1 759         0.0320
     62 CBX        23.4020  -33.2950  -14.4710 C.2       1 759         0.0263
     63 CCE        24.6430  -32.6870  -14.2910 C.ar      1 759         0.0078
     64 CAR        25.7300  -33.3770  -13.7560 C.ar      1 759        -0.0437
     65 CAN        26.9620  -32.7390  -13.5830 C.ar      1 759        -0.0406
     66 CBY        27.1250  -31.4080  -13.9500 C.ar      1 759         0.0470
     67 CL1        28.6800  -30.5780  -13.7290 Cl        1 759        -0.0647
     68 CAO        26.0410  -30.7300  -14.4950 C.ar      1 759        -0.0406
     69 CAS        24.8110  -31.3620  -14.6650 C.ar      1 759        -0.0437
     70 H1         13.0065  -24.7463  -13.5350 H         1 759         0.0382
     71 H2         11.5932  -23.7632  -14.0476 H         1 759         0.0382
     72 H3         11.5481  -24.6571  -12.4902 H         1 759         0.0382
     73 H4         12.1131  -20.0332  -10.8908 H         1 759         0.1176
     74 H5         16.1384  -23.1428  -10.8273 H         1 759         0.0568
     75 H6         18.0622  -24.5587  -11.4005 H         1 759         0.0550
     76 H7         14.4088  -23.9397  -14.6676 H         1 759         0.0568
     77 H8         16.3435  -25.3654  -15.2417 H         1 759         0.0550
     78 H9         18.5843  -25.8913  -14.7853 H         1 759         0.0679
     79 H10        18.2758  -26.8853  -13.3212 H         1 759         0.0679
     80 H11        19.9200  -25.6319  -12.1415 H         1 759         0.1878
     81 H12        21.9005  -24.8551  -12.2071 H         1 759         0.0803
     82 H13        20.8363  -23.1460  -11.0269 H         1 759         0.0338
     83 H14        20.4358  -22.2245  -12.5159 H         1 759         0.0338
     84 H15        22.2433  -20.9335  -11.6805 H         1 759         0.0616
     85 H16        22.7550  -22.4323   -9.9386 H         1 759         0.2099
     86 H17        24.3381  -22.1300  -12.9711 H         1 759         0.0550
     87 H18        22.9618  -21.4272  -13.8868 H         1 759         0.0550
     88 H19        25.2202  -23.0360  -14.5675 H         1 759         0.0805
     89 H20        26.0118  -22.9969  -18.2762 H         1 759         0.0237
     90 H21        26.5611  -24.2991  -17.1676 H         1 759         0.0237
     91 H22        26.6596  -22.5808  -16.6533 H         1 759         0.0237
     92 H23        22.8119  -24.4447  -17.0803 H         1 759         0.0237
     93 H24        24.2982  -25.3644  -17.4943 H         1 759         0.0237
     94 H25        23.7762  -23.9895  -18.5258 H         1 759         0.0237
     95 H26        24.5715  -21.3103  -16.1332 H         1 759         0.0237
     96 H27        22.9705  -22.0919  -16.3623 H         1 759         0.0237
     97 H28        23.9939  -21.7063  -17.7873 H         1 759         0.0237
     98 H29        25.3370  -25.8443  -15.6341 H         1 759         0.1883
     99 H30        26.6663  -27.3607  -14.1893 H         1 759         0.0804
    100 H31        28.3175  -26.6750  -14.0164 H         1 759         0.0804
    101 H32        27.0976  -28.6222  -16.0733 H         1 759         0.0585
    102 H33        28.4389  -28.0493  -17.1217 H         1 759         0.0585
    103 H34        26.9704  -27.5705  -18.8070 H         1 759         0.0583
    104 H35        26.0245  -26.5113  -17.7070 H         1 759         0.0583
    105 H36        24.0814  -27.1159  -16.9745 H         1 759         0.0583
    106 H37        24.6227  -28.4541  -15.9054 H         1 759         0.0583
    107 H38        22.2023  -28.5693  -16.9640 H         1 759         0.0583
    108 H39        23.2267  -30.0449  -16.9654 H         1 759         0.0583
    109 H40        21.8664  -28.3452  -20.3433 H         1 759         0.0580
    110 H41        21.5890  -27.6232  -18.7220 H         1 759         0.0580
    111 H42        19.9777  -29.5224  -19.9154 H         1 759         0.0543
    112 H43        20.0604  -29.1902  -18.1520 H         1 759         0.0543
    113 H44        21.3832  -31.4768  -19.5482 H         1 759         0.1851
    114 H45        22.1876  -33.2316  -18.2082 H         1 759         0.0539
    115 H46        20.4584  -33.6798  -18.0198 H         1 759         0.0539
    116 H47        20.7650  -33.3051  -15.5189 H         1 759         0.0654
    117 H48        22.0925  -39.1605  -15.0565 H         1 759         0.0469
    118 H49        21.4364  -38.2525  -13.6524 H         1 759         0.0469
    119 H50        23.1914  -38.1801  -14.0281 H         1 759         0.0469
    120 H51        22.5408  -33.6052   -9.5216 H         1 759         0.0365
    121 H52        22.5165  -35.3970   -9.3980 H         1 759         0.0365
    122 H53        20.9797  -34.4900   -9.6037 H         1 759         0.0365
    123 H54        23.3145  -32.4911  -10.4936 H         1 759         0.0315
    124 H55        23.0258  -31.5917  -12.0215 H         1 759         0.0315
    125 H56        24.5532  -32.5093  -11.7943 H         1 759         0.0315
    126 H57        25.6190  -34.4172  -13.4717 H         1 759         0.0681
    127 H58        27.7964  -33.2863  -13.1595 H         1 759         0.0639
    128 H59        26.1543  -29.6937  -14.7923 H         1 759         0.0639
    129 H60        23.9792  -30.8141  -15.0927 H         1 759         0.0681
@<TRIPOS>BOND
     1    1    2 1  
     2    2    3 1  
     3    2    6 2  
     4    3    4 2  
     5    4    5 1  
     6    5    6 1  
     7    6    7 1  
     8    7    8 ar 
     9    7   10 ar 
    10    8    9 ar 
    11    9   12 ar 
    12   10   11 ar 
    13   11   12 ar 
    14   12   13 1  
    15   13   14 1  
    16   14   15 am 
    17   15   16 2  
    18   15   17 1  
    19   17   18 1  
    20   17   22 1  
    21   18   19 1  
    22   19   20 1  
    23   19   21 1  
    24   21   22 1  
    25   22   23 am 
    26   23   24 2  
    27   23   25 1  
    28   25   26 1  
    29   25   30 1  
    30   26   27 1  
    31   26   28 1  
    32   26   29 1  
    33   30   31 am 
    34   31   32 2  
    35   31   33 1  
    36   33   34 1  
    37   34   35 1  
    38   35   36 1  
    39   36   37 1  
    40   37   38 1  
    41   38   39 1  
    42   39   40 1  
    43   40   41 1  
    44   41   42 1  
    45   42   43 1  
    46   43   44 am 
    47   44   45 2  
    48   44   46 1  
    49   46   47 1  
    50   47   48 1  
    51   47   49 1  
    52   48   62 2  
    53   49   50 2  
    54   49   54 1  
    55   50   51 1  
    56   51   52 2  
    57   52   53 1  
    58   52   54 1  
    59   54   55 1  
    60   55   56 1  
    61   55   61 2  
    62   56   57 1  
    63   57   58 1  
    64   57   59 2  
    65   59   60 1  
    66   59   61 1  
    67   61   62 1  
    68   62   63 1  
    69   63   64 ar 
    70   63   69 ar 
    71   64   65 ar 
    72   65   66 ar 
    73   66   67 1  
    74   66   68 ar 
    75   68   69 ar 
    76    1   70 1  
    77    1   71 1  
    78    1   72 1  
    79    4   73 1  
    80    8   74 1  
    81    9   75 1  
    82   10   76 1  
    83   11   77 1  
    84   13   78 1  
    85   13   79 1  
    86   14   80 1  
    87   17   81 1  
    88   18   82 1  
    89   18   83 1  
    90   19   84 1  
    91   20   85 1  
    92   21   86 1  
    93   21   87 1  
    94   25   88 1  
    95   27   89 1  
    96   27   90 1  
    97   27   91 1  
    98   28   92 1  
    99   28   93 1  
   100   28   94 1  
   101   29   95 1  
   102   29   96 1  
   103   29   97 1  
   104   30   98 1  
   105   33   99 1  
   106   33  100 1  
   107   35  101 1  
   108   35  102 1  
   109   36  103 1  
   110   36  104 1  
   111   38  105 1  
   112   38  106 1  
   113   39  107 1  
   114   39  108 1  
   115   41  109 1  
   116   41  110 1  
   117   42  111 1  
   118   42  112 1  
   119   43  113 1  
   120   46  114 1  
   121   46  115 1  
   122   47  116 1  
   123   53  117 1  
   124   53  118 1  
   125   53  119 1  
   126   58  120 1  
   127   58  121 1  
   128   58  122 1  
   129   60  123 1  
   130   60  124 1  
   131   60  125 1  
   132   64  126 1  
   133   65  127 1  
   134   68  128 1  
   135   69  129 1  
@<TRIPOS>SUBSTRUCTURE
     1 759         1

