5t35_ligand
  -I-interpret- 

129135  0  0  0  0  0  0  0  0999 V2000
   12.1900  -24.0970  -13.1860 C   0  0  0  0  0
   12.7800  -22.8740  -12.4670 C   0  0  0  0  0
   11.9740  -21.9220  -11.9440 N   0  0  0  0  0
   12.5910  -20.8930  -11.3580 C   0  0  0  0  0
   14.2020  -21.1670  -11.4740 S   0  0  0  0  0
   14.0880  -22.6490  -12.3090 C   0  0  0  0  0
   15.1210  -23.4320  -12.6950 C   0  0  0  0  0
   16.1730  -23.6240  -11.7980 C   0  0  0  0  0
   17.2690  -24.4240  -12.1270 C   0  0  0  0  0
   15.2070  -24.0710  -13.9460 C   0  0  0  0  0
   16.3100  -24.8760  -14.2750 C   0  0  0  0  0
   17.3690  -25.0570  -13.3730 C   0  0  0  0  0
   18.4570  -25.8660  -13.6930 C   0  0  0  0  0
   19.6910  -25.3240  -13.0650 N   0  0  0  0  0
   20.5260  -24.4390  -13.6640 C   0  0  0  0  0
   20.3610  -24.0100  -14.8110 O   0  0  0  0  0
   21.6220  -24.0140  -12.8590 C   0  0  0  0  0
   21.2120  -22.8140  -12.0060 C   0  0  0  0  0
   22.4830  -21.9950  -11.8410 C   0  0  0  0  0
   23.2650  -22.4900  -10.7380 O   0  0  0  0  0
   23.2540  -22.1880  -13.1480 C   0  0  0  0  0
   22.8690  -23.5530  -13.6170 N   0  0  0  0  0
   23.4900  -24.3530  -14.5060 C   0  0  0  0  0
   23.0970  -25.4920  -14.7610 O   0  0  0  0  0
   24.7910  -23.8610  -15.1550 C   0  0  0  0  0
   24.6610  -23.4100  -16.6370 C   0  0  0  0  0
   26.0730  -23.3150  -17.2250 C   0  0  0  0  0
   23.8280  -24.3700  -17.4950 C   0  0  0  0  0
   24.0030  -22.0330  -16.7370 C   0  0  0  0  0
   25.6310  -25.0530  -15.0980 N   0  0  0  0  0
   26.7590  -25.1800  -14.3920 C   0  0  0  0  0
   27.3250  -24.2720  -13.7710 O   0  0  0  0  0
   27.3550  -26.5780  -14.5400 C   0  0  0  0  0
   27.5130  -26.5970  -15.9740 O   0  0  0  0  0
   27.4510  -27.7970  -16.7090 C   0  0  0  0  0
   26.4470  -27.5180  -17.8410 C   0  0  0  0  0
   25.3780  -28.4820  -17.8320 O   0  0  0  0  0
   24.3280  -28.1870  -16.9310 C   0  0  0  0  0
   23.1160  -29.0280  -17.3700 C   0  0  0  0  0
   22.9930  -29.1120  -18.8140 O   0  0  0  0  0
   21.7870  -28.5580  -19.2670 C   0  0  0  0  0
   20.6260  -29.5430  -19.0270 C   0  0  0  0  0
   21.0130  -30.9560  -18.7790 N   0  0  0  0  0
   20.9000  -31.5970  -17.5750 C   0  0  0  0  0
   20.5370  -31.0540  -16.5290 O   0  0  0  0  0
   21.2890  -33.1030  -17.5870 C   0  0  0  0  0
   21.5820  -33.6400  -16.1750 C   0  0  0  0  0
   22.8600  -33.0970  -15.6750 N   0  0  0  0  0
   21.6820  -35.0520  -16.0730 C   0  0  0  0  0
   21.5110  -35.9100  -17.0840 N   0  0  0  0  0
   21.6650  -37.0860  -16.6590 N   0  0  0  0  0
   21.9400  -37.0280  -15.3580 C   0  0  0  0  0
   22.1820  -38.2400  -14.4610 C   0  0  0  0  0
   21.9700  -35.7620  -14.9740 N   0  0  0  0  0
   22.1800  -35.2040  -13.7750 C   0  0  0  0  0
   21.5840  -35.8540  -12.2890 S   0  0  0  0  0
   22.1870  -34.6300  -11.3970 C   0  0  0  0  0
   22.0460  -34.5230   -9.8720 C   0  0  0  0  0
   22.8150  -33.7430  -12.1920 C   0  0  0  0  0
   23.4740  -32.4950  -11.5820 C   0  0  0  0  0
   22.8260  -34.0530  -13.5180 C   0  0  0  0  0
   23.4020  -33.2950  -14.4710 C   0  0  0  0  0
   24.6430  -32.6870  -14.2910 C   0  0  0  0  0
   25.7300  -33.3770  -13.7560 C   0  0  0  0  0
   26.9620  -32.7390  -13.5830 C   0  0  0  0  0
   27.1250  -31.4080  -13.9500 C   0  0  0  0  0
   28.6800  -30.5780  -13.7290 Cl  0  0  0  0  0
   26.0410  -30.7300  -14.4950 C   0  0  0  0  0
   24.8110  -31.3620  -14.6650 C   0  0  0  0  0
   11.5541  -24.6510  -12.4955 H   0  0  0  0  0
   11.5989  -23.7649  -14.0395 H   0  0  0  0  0
   12.9999  -24.7396  -13.5313 H   0  0  0  0  0
   12.1127  -20.0324  -10.8903 H   0  0  0  0  0
   16.1383  -23.1401  -10.8219 H   0  0  0  0  0
   18.0665  -24.5595  -11.3965 H   0  0  0  0  0
   14.4044  -23.9390  -14.6716 H   0  0  0  0  0
   16.3436  -25.3681  -15.2470 H   0  0  0  0  0
   18.5835  -25.8875  -14.7754 H   0  0  0  0  0
   18.2772  -26.8748  -13.3213 H   0  0  0  0  0
   19.9245  -25.6380  -12.1231 H   0  0  0  0  0
   21.8747  -24.9082  -12.2892 H   0  0  0  0  0
   20.8032  -23.1232  -11.0440 H   0  0  0  0  0
   20.4175  -22.2358  -12.4778 H   0  0  0  0  0
   22.2632  -20.9472  -11.6365 H   0  0  0  0  0
   24.0617  -21.9617  -10.6495 H   0  0  0  0  0
   24.3304  -22.0964  -13.0026 H   0  0  0  0  0
   23.0079  -21.4211  -13.8825 H   0  0  0  0  0
   25.1630  -22.9748  -14.6409 H   0  0  0  0  0
   26.6532  -22.5873  -16.6577 H   0  0  0  0  0
   26.5555  -24.2907  -17.1675 H   0  0  0  0  0
   26.0110  -22.9997  -18.2666 H   0  0  0  0  0
   24.2938  -25.3555  -17.4917 H   0  0  0  0  0
   22.8208  -24.4414  -17.0844 H   0  0  0  0  0
   23.7794  -23.9931  -18.5166 H   0  0  0  0  0
   23.0072  -22.0747  -16.2957 H   0  0  0  0  0
   24.6090  -21.3024  -16.2012 H   0  0  0  0  0
   23.9255  -21.7440  -17.7851 H   0  0  0  0  0
   25.3311  -25.8601  -15.6449 H   0  0  0  0  0
   26.7479  -27.3855  -14.1307 H   0  0  0  0  0
   28.2682  -26.7541  -13.9716 H   0  0  0  0  0
   27.1371  -28.6358  -16.0878 H   0  0  0  0  0
   28.4282  -28.0844  -17.0970 H   0  0  0  0  0
   26.9692  -27.5839  -18.7955 H   0  0  0  0  0
   26.0230  -26.5245  -17.6952 H   0  0  0  0  0
   24.0889  -27.1237  -16.9492 H   0  0  0  0  0
   24.6164  -28.4274  -15.9077 H   0  0  0  0  0
   22.2163  -28.5499  -16.9826 H   0  0  0  0  0
   23.2497  -30.0386  -16.9840 H   0  0  0  0  0
   21.8668  -28.3537  -20.3347 H   0  0  0  0  0
   21.5908  -27.6352  -18.7211 H   0  0  0  0  0
   20.0310  -29.5439  -19.9403 H   0  0  0  0  0
   20.1161  -29.2021  -18.1259 H   0  0  0  0  0
   21.3906  -31.4872  -19.5636 H   0  0  0  0  0
   22.1927  -33.2147  -18.1862 H   0  0  0  0  0
   20.4504  -33.6662  -17.9964 H   0  0  0  0  0
   20.7205  -33.3189  -15.5896 H   0  0  0  0  0
   21.2966  -38.8758  -14.4648 H   0  0  0  0  0
   23.0368  -38.8030  -14.8359 H   0  0  0  0  0
   22.3847  -37.9033  -13.4443 H   0  0  0  0  0
   20.9891  -34.4904   -9.6075 H   0  0  0  0  0
   22.5125  -35.3896   -9.4036 H   0  0  0  0  0
   22.5366  -33.6132   -9.5260 H   0  0  0  0  0
   22.7180  -31.9006  -11.0689 H   0  0  0  0  0
   24.2412  -32.8016  -10.8710 H   0  0  0  0  0
   23.9283  -31.9012  -12.3751 H   0  0  0  0  0
   25.6184  -34.4229  -13.4701 H   0  0  0  0  0
   27.8010  -33.2893  -13.1572 H   0  0  0  0  0
   26.1549  -29.6880  -14.7940 H   0  0  0  0  0
   23.9746  -30.8111  -15.0951 H   0  0  0  0  0
  1  2  1  0  0  0
  2  3  4  0  0  0
  2  6  4  0  0  0
  3  4  4  0  0  0
  4  5  4  0  0  0
  5  6  4  0  0  0
  6  7  1  0  0  0
  7  8  4  0  0  0
  7 10  4  0  0  0
  8  9  4  0  0  0
  9 12  4  0  0  0
 10 11  4  0  0  0
 11 12  4  0  0  0
 12 13  1  0  0  0
 13 14  1  0  0  0
 14 15  1  0  0  0
 15 16  2  0  0  0
 15 17  1  0  0  0
 17 18  1  0  0  0
 17 22  1  0  0  0
 18 19  1  0  0  0
 19 20  1  0  0  0
 19 21  1  0  0  0
 21 22  1  0  0  0
 22 23  1  0  0  0
 23 24  2  0  0  0
 23 25  1  0  0  0
 25 26  1  0  0  0
 25 30  1  0  0  0
 26 27  1  0  0  0
 26 28  1  0  0  0
 26 29  1  0  0  0
 30 31  1  0  0  0
 31 32  2  0  0  0
 31 33  1  0  0  0
 33 34  1  0  0  0
 34 35  1  0  0  0
 35 36  1  0  0  0
 36 37  1  0  0  0
 37 38  1  0  0  0
 38 39  1  0  0  0
 39 40  1  0  0  0
 40 41  1  0  0  0
 41 42  1  0  0  0
 42 43  1  0  0  0
 43 44  1  0  0  0
 44 45  2  0  0  0
 44 46  1  0  0  0
 46 47  1  0  0  0
 47 48  1  0  0  0
 47 49  1  0  0  0
 48 62  2  0  0  0
 49 50  4  0  0  0
 49 54  4  0  0  0
 50 51  4  0  0  0
 51 52  4  0  0  0
 52 53  1  0  0  0
 52 54  4  0  0  0
 54 55  1  0  0  0
 55 56  4  0  0  0
 55 61  4  0  0  0
 56 57  4  0  0  0
 57 58  1  0  0  0
 57 59  4  0  0  0
 59 60  1  0  0  0
 59 61  4  0  0  0
 61 62  1  0  0  0
 62 63  1  0  0  0
 63 64  4  0  0  0
 63 69  4  0  0  0
 64 65  4  0  0  0
 65 66  4  0  0  0
 66 67  1  0  0  0
 66 68  4  0  0  0
 68 69  4  0  0  0
  1 70  1  0  0  0
  1 71  1  0  0  0
  1 72  1  0  0  0
  4 73  1  0  0  0
  8 74  1  0  0  0
  9 75  1  0  0  0
 10 76  1  0  0  0
 11 77  1  0  0  0
 13 78  1  0  0  0
 13 79  1  0  0  0
 14 80  1  0  0  0
 17 81  1  0  0  0
 18 82  1  0  0  0
 18 83  1  0  0  0
 19 84  1  0  0  0
 20 85  1  0  0  0
 21 86  1  0  0  0
 21 87  1  0  0  0
 25 88  1  0  0  0
 27 89  1  0  0  0
 27 90  1  0  0  0
 27 91  1  0  0  0
 28 92  1  0  0  0
 28 93  1  0  0  0
 28 94  1  0  0  0
 29 95  1  0  0  0
 29 96  1  0  0  0
 29 97  1  0  0  0
 30 98  1  0  0  0
 33 99  1  0  0  0
 33100  1  0  0  0
 35101  1  0  0  0
 35102  1  0  0  0
 36103  1  0  0  0
 36104  1  0  0  0
 38105  1  0  0  0
 38106  1  0  0  0
 39107  1  0  0  0
 39108  1  0  0  0
 41109  1  0  0  0
 41110  1  0  0  0
 42111  1  0  0  0
 42112  1  0  0  0
 43113  1  0  0  0
 46114  1  0  0  0
 46115  1  0  0  0
 47116  1  0  0  0
 53117  1  0  0  0
 53118  1  0  0  0
 53119  1  0  0  0
 58120  1  0  0  0
 58121  1  0  0  0
 58122  1  0  0  0
 60123  1  0  0  0
 60124  1  0  0  0
 60125  1  0  0  0
 64126  1  0  0  0
 65127  1  0  0  0
 68128  1  0  0  0
 69129  1  0  0  0
M  END
$$$$
