4nrk_ligand
  -I-interpret- 

 39 39  0  0  0  0  0  0  0  0999 V2000
    3.7870  -86.5090  -16.5290 C   0  0  0  0  0
    3.8890  -88.0160  -16.6710 C   0  0  0  0  0
    2.9350  -88.5890  -17.6990 C   0  0  0  0  0
    3.2940  -88.0910  -19.0810 C   0  0  0  0  0
    4.7170  -88.4880  -19.3960 C   0  0  0  0  0
    5.5940  -87.9900  -18.2740 C   0  0  0  0  0
    7.0290  -88.4080  -18.4980 C   0  0  0  0  0
    7.8800  -87.8170  -17.3980 C   0  0  0  0  0
    9.3440  -87.9360  -17.7550 C   0  0  0  0  0
    5.6200  -88.6450  -21.6930 C   0  0  0  0  0
    5.7390  -90.1500  -21.5740 C   0  0  0  0  0
    5.1180  -87.8750  -20.6110 N   0  0  0  0  0
    2.6530  -85.9650  -16.5920 O   0  0  0  0  0
    4.8070  -85.7920  -16.3280 O   0  0  0  0  0
    2.4180  -88.6480  -20.0330 O   0  0  0  0  0
    5.1540  -88.5190  -17.0430 O   0  0  0  0  0
    7.1140  -89.8110  -18.4580 O   0  0  0  0  0
    7.5470  -86.4600  -17.2310 O   0  0  0  0  0
   10.1240  -87.7080  -16.6010 O   0  0  0  0  0
    5.9560  -88.0900  -22.7200 O   0  0  0  0  0
    3.6499  -88.3261  -15.6538 H   0  0  0  0  0
    1.9200  -88.2726  -17.4587 H   0  0  0  0  0
    3.0049  -89.6766  -17.6828 H   0  0  0  0  0
    3.2031  -87.0053  -19.1134 H   0  0  0  0  0
    4.7994  -89.5702  -19.4972 H   0  0  0  0  0
    5.5317  -86.9020  -18.2529 H   0  0  0  0  0
    7.3784  -88.0541  -19.4679 H   0  0  0  0  0
    7.6950  -88.3593  -16.4708 H   0  0  0  0  0
    9.5953  -87.1988  -18.5175 H   0  0  0  0  0
    9.5460  -88.9351  -18.1411 H   0  0  0  0  0
    5.1285  -90.6234  -22.3430 H   0  0  0  0  0
    6.7810  -90.4422  -21.7045 H   0  0  0  0  0
    5.3929  -90.4638  -20.5892 H   0  0  0  0  0
    5.0443  -86.8624  -20.7090 H   0  0  0  0  0
    5.5888  -86.3487  -16.3063 H   0  0  0  0  0
    1.5166  -88.3911  -19.8257 H   0  0  0  0  0
    6.5725  -90.1833  -19.1578 H   0  0  0  0  0
    8.0868  -86.0828  -16.5324 H   0  0  0  0  0
   11.0545  -87.7830  -16.8251 H   0  0  0  0  0
  2  1  1  0  0  0
  1 13  2  0  0  0
  1 14  1  0  0  0
  3  2  1  0  0  0
 16  2  1  0  0  0
  4  3  1  0  0  0
  5  4  1  0  0  0
  4 15  1  0  0  0
  5  6  1  0  0  0
 12  5  1  0  0  0
  6  7  1  0  0  0
  6 16  1  0  0  0
  7  8  1  0  0  0
  7 17  1  0  0  0
  8  9  1  0  0  0
  8 18  1  0  0  0
  9 19  1  0  0  0
 10 11  1  0  0  0
 10 12  1  0  0  0
 10 20  2  0  0  0
  2 21  1  0  0  0
  3 22  1  0  0  0
  3 23  1  0  0  0
  4 24  1  0  0  0
  5 25  1  0  0  0
  6 26  1  0  0  0
  7 27  1  0  0  0
  8 28  1  0  0  0
  9 29  1  0  0  0
  9 30  1  0  0  0
 11 31  1  0  0  0
 11 32  1  0  0  0
 11 33  1  0  0  0
 12 34  1  0  0  0
 14 35  1  0  0  0
 15 36  1  0  0  0
 17 37  1  0  0  0
 18 38  1  0  0  0
 19 39  1  0  0  0
M  END
$$$$
