5owa_ligand
  -I-interpret- 

 49 51  0  0  0  0  0  0  0  0999 V2000
    2.5890    7.1330   47.3820 C   0  0  0  0  0
    7.1960    6.6700   49.2600 C   0  0  0  0  0
    2.6110   15.5180   54.2410 C   0  0  0  0  0
    2.0430   18.8870   50.6100 C   0  0  0  0  0
    7.0570   13.7220   51.3280 C   0  0  0  0  0
    2.2660   17.1700   52.4090 C   0  0  0  0  0
    5.5880   15.5470   50.3430 C   0  0  0  0  0
    4.0950   15.4950   52.2170 C   0  0  0  0  0
    3.8030   17.1360   50.4440 C   0  0  0  0  0
    6.0050    9.5300   49.9030 C   0  0  0  0  0
    3.9070    7.4660   48.0970 C   0  0  0  0  0
    6.0230   14.0690   50.5410 C   0  0  0  0  0
    5.8560    7.2900   48.9240 C   0  0  0  0  0
    5.9080   11.8540   50.2080 C   0  0  0  0  0
    5.4040    8.5180   49.2430 C   0  0  0  0  0
    2.6690   15.7360   52.7340 C   0  0  0  0  0
    2.3780   17.4240   50.9030 C   0  0  0  0  0
    4.9330    6.6340   48.2270 N   0  0  0  0  0
    5.3900   13.0560   49.9190 N   0  0  0  0  0
    5.4300   10.7360   49.6690 N   0  0  0  0  0
    4.1990   15.7550   50.7650 N   0  3  0  0  0
    6.9710    9.3610   50.6420 O   0  0  0  0  0
    4.1590    8.6370   48.7200 O   0  0  0  0  0
    7.2270   12.0610   51.2670 S   0  0  0  0  0
    2.7948    6.8830   46.3412 H   0  0  0  0  0
    2.1147    6.2838   47.8740 H   0  0  0  0  0
    1.9254    7.9967   47.4252 H   0  0  0  0  0
    7.9932    7.2740   48.8268 H   0  0  0  0  0
    7.3155    6.6308   50.3427 H   0  0  0  0  0
    7.2405    5.6604   48.8515 H   0  0  0  0  0
    2.9057   14.4940   54.4703 H   0  0  0  0  0
    3.2916   16.2123   54.7337 H   0  0  0  0  0
    1.5943   15.6923   54.5932 H   0  0  0  0  0
    2.7388   19.5322   51.1464 H   0  0  0  0  0
    2.1276   19.0703   49.5389 H   0  0  0  0  0
    1.0246   19.0977   50.9366 H   0  0  0  0  0
    7.6774   14.4067   51.9062 H   0  0  0  0  0
    2.9302   17.8549   52.9362 H   0  0  0  0  0
    1.2340   17.3295   52.7214 H   0  0  0  0  0
    5.6696   15.7938   49.2844 H   0  0  0  0  0
    6.2335   16.1827   50.9490 H   0  0  0  0  0
    4.3559   14.4526   52.3997 H   0  0  0  0  0
    4.7695   16.1747   52.7377 H   0  0  0  0  0
    4.4783   17.8194   50.9588 H   0  0  0  0  0
    3.8533   17.2693   49.3633 H   0  0  0  0  0
    1.9849   15.0361   52.2541 H   0  0  0  0  0
    1.6832   16.7731   50.3723 H   0  0  0  0  0
    4.6102   10.7868   49.0643 H   0  0  0  0  0
    3.5731   15.1160   50.2747 H   0  0  0  0  0
 11  1  1  0  0  0
 13  2  1  0  0  0
 16  3  1  0  0  0
 17  4  1  0  0  0
 12  5  4  0  0  0
  5 24  4  0  0  0
 16  6  1  0  0  0
 17  6  1  0  0  0
 12  7  1  0  0  0
  7 21  1  0  0  0
  8 16  1  0  0  0
 21  8  1  0  0  0
  9 17  1  0  0  0
 21  9  1  0  0  0
 10 15  1  0  0  0
 20 10  1  0  0  0
 10 22  2  0  0  0
 18 11  4  0  0  0
 11 23  4  0  0  0
 19 12  4  0  0  0
 15 13  4  0  0  0
 13 18  4  0  0  0
 14 19  4  0  0  0
 14 20  1  0  0  0
 14 24  4  0  0  0
 15 23  4  0  0  0
  1 25  1  0  0  0
  1 26  1  0  0  0
  1 27  1  0  0  0
  2 28  1  0  0  0
  2 29  1  0  0  0
  2 30  1  0  0  0
  3 31  1  0  0  0
  3 32  1  0  0  0
  3 33  1  0  0  0
  4 34  1  0  0  0
  4 35  1  0  0  0
  4 36  1  0  0  0
  5 37  1  0  0  0
  6 38  1  0  0  0
  6 39  1  0  0  0
  7 40  1  0  0  0
  7 41  1  0  0  0
  8 42  1  0  0  0
  8 43  1  0  0  0
  9 44  1  0  0  0
  9 45  1  0  0  0
 16 46  1  0  0  0
 17 47  1  0  0  0
 20 48  1  0  0  0
 21 49  1  0  0  0
M  END
$$$$
