5eok_ligand
  -I-interpret- 

148152  0  0  0  0  0  0  0  0999 V2000
   15.2260  -27.7500  -10.2670 N   0  3  0  0  0
   13.9690  -28.3060   -9.6980 C   0  0  0  0  0
   13.4400  -27.4320   -8.5830 C   0  0  0  0  0
   14.2060  -26.8970   -7.7880 O   0  0  0  0  0
   14.2110  -29.7330   -9.1920 C   0  0  0  0  0
   13.1590  -30.7420   -9.6380 C   0  0  0  0  0
   13.4840  -31.9260  -10.2010 N   0  0  0  0  0
   11.7620  -30.7030   -9.5850 C   0  0  0  0  0
   12.3570  -32.6100  -10.4920 C   0  0  0  0  0
   11.3050  -31.8600  -10.1150 N   0  0  0  0  0
   12.1210  -27.2580   -8.5450 N   0  0  0  0  0
   11.4250  -26.7110   -7.3890 C   0  0  0  0  0
   10.6590  -27.8780   -6.7560 C   0  0  0  0  0
    9.9720  -28.6220   -7.4600 O   0  0  0  0  0
   10.4740  -25.5570   -7.7850 C   0  0  0  0  0
   11.3010  -24.3100   -8.1350 C   0  0  0  0  0
    9.4510  -25.2790   -6.6790 C   0  0  0  0  0
   10.5050  -23.1070   -8.6140 C   0  0  0  0  0
   10.7950  -28.0570   -5.4420 N   0  0  0  0  0
   10.0930  -29.1370   -4.7490 C   0  0  0  0  0
    8.8000  -28.6970   -4.0870 C   0  0  0  0  0
    8.6570  -27.5500   -3.6790 O   0  0  0  0  0
   10.9990  -29.8170   -3.7440 C   0  0  0  0  0
   12.1880  -30.4160   -4.4180 C   0  0  0  0  0
   13.2710  -29.6130   -4.7720 C   0  0  0  0  0
   12.2280  -31.7770   -4.7410 C   0  0  0  0  0
   14.3720  -30.1400   -5.4090 C   0  0  0  0  0
   13.3350  -32.3170   -5.3840 C   0  0  0  0  0
   14.4040  -31.4830   -5.7080 C   0  0  0  0  0
   15.5260  -31.9530   -6.3390 O   0  0  0  0  0
    7.8210  -29.6070   -4.0110 N   0  0  0  0  0
    6.6090  -29.1730   -3.3050 C   0  0  0  0  0
    6.8170  -29.1180   -1.7700 C   0  0  0  0  0
    7.8520  -29.5760   -1.2450 O   0  0  0  0  0
    5.5630  -30.2230   -3.7240 C   0  0  0  0  0
    6.3460  -31.4340   -4.1570 C   0  0  0  0  0
    7.7110  -30.9710   -4.5840 C   0  0  0  0  0
    5.8450  -28.5690   -1.0550 N   0  0  0  0  0
    5.9570  -28.4760    0.3870 C   0  0  0  0  0
    5.9220  -29.8100    1.1020 C   0  0  0  0  0
    5.9170  -30.8720    0.4920 O   0  0  0  0  0
    4.8440  -27.6040    0.9360 C   0  0  0  0  0
    5.2010  -26.1400    0.9280 C   0  0  0  0  0
    6.3640  -25.7830    0.6070 O   0  0  0  0  0
    4.3030  -25.3400    1.2620 O   0  0  0  0  0
    5.9110  -29.7410    2.4190 N   0  0  0  0  0
    5.6270  -30.8900    3.2290 C   0  0  0  0  0
    4.1120  -31.0230    3.3820 C   0  0  0  0  0
    3.4130  -30.0170    3.5000 O   0  0  0  0  0
    6.2910  -30.7240    4.5850 C   0  0  0  0  0
    7.7170  -31.1690    4.6150 C   0  0  0  0  0
    8.7230  -30.2810    4.9290 C   0  0  0  0  0
    8.0540  -32.4930    4.3410 C   0  0  0  0  0
   10.0500  -30.7020    4.9670 C   0  0  0  0  0
    9.3710  -32.9190    4.3760 C   0  0  0  0  0
   10.3730  -32.0220    4.6920 C   0  0  0  0  0
    3.6000  -32.2700    3.3300 N   0  0  0  0  0
    2.1920  -32.6540    3.5260 C   0  0  0  0  0
    1.5540  -32.1330    4.7960 C   0  0  0  0  0
    2.1540  -32.1900    5.8700 O   0  0  0  0  0
    2.2630  -34.1720    3.6350 C   0  0  0  0  0
    3.5070  -34.5720    2.9040 C   0  0  0  0  0
    4.3840  -33.3650    2.7190 C   0  0  0  0  0
    0.3240  -31.6560    4.6490 N   0  0  0  0  0
   -0.5680  -31.2870    5.7590 C   0  0  0  0  0
   -1.2720  -32.5260    6.3630 C   0  0  0  0  0
   -1.7670  -32.4780    7.4990 O   0  0  0  0  0
   -1.6350  -30.2960    5.2450 C   0  0  0  0  0
   -0.9860  -29.2860    4.4660 O   0  0  0  0  0
   -2.4390  -29.6470    6.3880 C   0  0  0  0  0
   -1.3060  -33.6180    5.5870 N   0  0  0  0  0
   -2.0000  -34.8890    5.9190 C   0  0  0  0  0
   -3.5150  -34.7350    6.1430 C   0  0  0  0  0
   -4.0550  -33.6230    6.1790 O   0  0  0  0  0
   -1.3420  -35.6210    7.1130 C   0  0  0  0  0
    0.0070  -36.2760    6.7640 C   0  0  0  0  0
    0.5700  -36.9380    7.6560 O   0  0  0  0  0
    0.5160  -36.1380    5.6290 O   0  0  0  0  0
   -4.2510  -35.7170    6.2960 O   0  0  0  0  0
   15.0562  -26.8013  -10.6009 H   0  0  0  0  0
   15.9465  -27.7338   -9.5452 H   0  0  0  0  0
   15.5342  -28.3350  -11.0436 H   0  0  0  0  0
   13.2170  -28.3302  -10.4867 H   0  0  0  0  0
   14.1805  -29.6972   -8.1030 H   0  0  0  0  0
   15.1658  -30.0618   -9.6024 H   0  0  0  0  0
   11.1536  -29.8897   -9.1893 H   0  0  0  0  0
   12.3077  -33.5970  -10.9518 H   0  0  0  0  0
   11.5722  -27.5201   -9.3639 H   0  0  0  0  0
   12.1317  -26.2768   -6.6818 H   0  0  0  0  0
    9.9034  -25.8474   -8.6672 H   0  0  0  0  0
   11.9569  -24.5946   -8.9577 H   0  0  0  0  0
   11.8025  -24.0036   -7.2170 H   0  0  0  0  0
    8.8567  -26.1754   -6.5019 H   0  0  0  0  0
    9.9738  -25.0014   -5.7637 H   0  0  0  0  0
    8.7973  -24.4631   -6.9872 H   0  0  0  0  0
    9.9541  -23.3733   -9.5161 H   0  0  0  0  0
    9.8051  -22.8028   -7.8358 H   0  0  0  0  0
   11.1870  -22.2853   -8.8325 H   0  0  0  0  0
   11.3991  -27.4300   -4.9107 H   0  0  0  0  0
    9.8134  -29.8525   -5.5223 H   0  0  0  0  0
   10.4397  -30.6111   -3.2492 H   0  0  0  0  0
   11.3419  -29.0748   -3.0231 H   0  0  0  0  0
   13.2458  -28.5482   -4.5402 H   0  0  0  0  0
   11.3843  -32.4184   -4.4862 H   0  0  0  0  0
   15.2121  -29.4983   -5.6745 H   0  0  0  0  0
   13.3671  -33.3780   -5.6317 H   0  0  0  0  0
   15.4332  -32.8958   -6.4943 H   0  0  0  0  0
    6.3065  -28.1576   -3.5610 H   0  0  0  0  0
    4.9300  -29.8517   -4.5300 H   0  0  0  0  0
    4.8889  -30.4607   -2.9011 H   0  0  0  0  0
    5.8412  -31.9353   -4.9829 H   0  0  0  0  0
    6.4279  -32.1451   -3.3350 H   0  0  0  0  0
    8.5017  -31.6331   -4.2310 H   0  0  0  0  0
    7.8292  -30.9754   -5.6676 H   0  0  0  0  0
    5.0128  -28.2097   -1.5228 H   0  0  0  0  0
    6.9381  -28.0404    0.5760 H   0  0  0  0  0
    4.6629  -27.9005    1.9692 H   0  0  0  0  0
    3.9670  -27.7398    0.3032 H   0  0  0  0  0
    6.8864  -26.5580    0.3879 H   0  0  0  0  0
    6.1092  -28.8491    2.8724 H   0  0  0  0  0
    6.0174  -31.7930    2.7596 H   0  0  0  0  0
    5.7418  -31.3430    5.2944 H   0  0  0  0  0
    6.2764  -29.6612    4.8268 H   0  0  0  0  0
    8.4784  -29.2419    5.1492 H   0  0  0  0  0
    7.2670  -33.2059    4.0948 H   0  0  0  0  0
   10.8381  -29.9907    5.2140 H   0  0  0  0  0
    9.6162  -33.9578    4.1551 H   0  0  0  0  0
   11.4119  -32.3502    4.7250 H   0  0  0  0  0
    1.5866  -32.2464    2.7164 H   0  0  0  0  0
    1.3796  -34.6436    3.2046 H   0  0  0  0  0
    2.2916  -34.4953    4.6756 H   0  0  0  0  0
    3.2418  -34.9832    1.9300 H   0  0  0  0  0
    4.0420  -35.3271    3.4800 H   0  0  0  0  0
    5.3633  -33.4858    3.1821 H   0  0  0  0  0
    4.6184  -33.1762    1.6714 H   0  0  0  0  0
   -0.0276  -31.5369    3.6990 H   0  0  0  0  0
    0.0369  -30.8276    6.5408 H   0  0  0  0  0
   -2.3486  -30.8522    4.6371 H   0  0  0  0  0
   -1.6410  -28.6639    4.1411 H   0  0  0  0  0
   -2.9490  -30.4235    6.9582 H   0  0  0  0  0
   -1.7606  -29.1000    7.0427 H   0  0  0  0  0
   -3.1742  -28.9600    5.9689 H   0  0  0  0  0
   -0.8146  -33.5728    4.6943 H   0  0  0  0  0
   -1.8821  -35.5077    5.0294 H   0  0  0  0  0
   -3.3911  -32.9418    6.0495 H   0  0  0  0  0
   -2.0207  -36.4149    7.4249 H   0  0  0  0  0
   -1.1548  -34.8791    7.8893 H   0  0  0  0  0
   -0.0618  -35.5990    5.0838 H   0  0  0  0  0
  1  2  1  0  0  0
  2  3  1  0  0  0
  2  5  1  0  0  0
  3  4  2  0  0  0
  3 11  1  0  0  0
  5  6  1  0  0  0
  6  7  4  0  0  0
  6  8  4  0  0  0
  7  9  4  0  0  0
  8 10  4  0  0  0
  9 10  4  0  0  0
 11 12  1  0  0  0
 12 13  1  0  0  0
 12 15  1  0  0  0
 13 14  2  0  0  0
 13 19  1  0  0  0
 15 16  1  0  0  0
 15 17  1  0  0  0
 16 18  1  0  0  0
 19 20  1  0  0  0
 20 21  1  0  0  0
 20 23  1  0  0  0
 21 22  2  0  0  0
 21 31  1  0  0  0
 23 24  1  0  0  0
 24 25  4  0  0  0
 24 26  4  0  0  0
 25 27  4  0  0  0
 26 28  4  0  0  0
 27 29  4  0  0  0
 28 29  4  0  0  0
 29 30  1  0  0  0
 31 32  1  0  0  0
 31 37  1  0  0  0
 32 33  1  0  0  0
 32 35  1  0  0  0
 33 34  2  0  0  0
 33 38  1  0  0  0
 35 36  1  0  0  0
 36 37  1  0  0  0
 38 39  1  0  0  0
 39 40  1  0  0  0
 39 42  1  0  0  0
 40 41  2  0  0  0
 40 46  1  0  0  0
 42 43  1  0  0  0
 43 44  1  0  0  0
 43 45  2  0  0  0
 46 47  1  0  0  0
 47 48  1  0  0  0
 47 50  1  0  0  0
 48 49  2  0  0  0
 48 57  1  0  0  0
 50 51  1  0  0  0
 51 52  4  0  0  0
 51 53  4  0  0  0
 52 54  4  0  0  0
 53 55  4  0  0  0
 54 56  4  0  0  0
 55 56  4  0  0  0
 57 58  1  0  0  0
 57 63  1  0  0  0
 58 59  1  0  0  0
 58 61  1  0  0  0
 59 60  2  0  0  0
 59 64  1  0  0  0
 61 62  1  0  0  0
 62 63  1  0  0  0
 64 65  1  0  0  0
 65 66  1  0  0  0
 65 68  1  0  0  0
 66 67  2  0  0  0
 66 71  1  0  0  0
 68 69  1  0  0  0
 68 70  1  0  0  0
 71 72  1  0  0  0
 72 73  1  0  0  0
 72 75  1  0  0  0
 73 74  1  0  0  0
 73 79  2  0  0  0
 75 76  1  0  0  0
 76 77  2  0  0  0
 76 78  1  0  0  0
  1 80  1  0  0  0
  1 81  1  0  0  0
  1 82  1  0  0  0
  2 83  1  0  0  0
  5 84  1  0  0  0
  5 85  1  0  0  0
  8 86  1  0  0  0
  9 87  1  0  0  0
 11 88  1  0  0  0
 12 89  1  0  0  0
 15 90  1  0  0  0
 16 91  1  0  0  0
 16 92  1  0  0  0
 17 93  1  0  0  0
 17 94  1  0  0  0
 17 95  1  0  0  0
 18 96  1  0  0  0
 18 97  1  0  0  0
 18 98  1  0  0  0
 19 99  1  0  0  0
 20100  1  0  0  0
 23101  1  0  0  0
 23102  1  0  0  0
 25103  1  0  0  0
 26104  1  0  0  0
 27105  1  0  0  0
 28106  1  0  0  0
 30107  1  0  0  0
 32108  1  0  0  0
 35109  1  0  0  0
 35110  1  0  0  0
 36111  1  0  0  0
 36112  1  0  0  0
 37113  1  0  0  0
 37114  1  0  0  0
 38115  1  0  0  0
 39116  1  0  0  0
 42117  1  0  0  0
 42118  1  0  0  0
 44119  1  0  0  0
 46120  1  0  0  0
 47121  1  0  0  0
 50122  1  0  0  0
 50123  1  0  0  0
 52124  1  0  0  0
 53125  1  0  0  0
 54126  1  0  0  0
 55127  1  0  0  0
 56128  1  0  0  0
 58129  1  0  0  0
 61130  1  0  0  0
 61131  1  0  0  0
 62132  1  0  0  0
 62133  1  0  0  0
 63134  1  0  0  0
 63135  1  0  0  0
 64136  1  0  0  0
 65137  1  0  0  0
 68138  1  0  0  0
 69139  1  0  0  0
 70140  1  0  0  0
 70141  1  0  0  0
 70142  1  0  0  0
 71143  1  0  0  0
 72144  1  0  0  0
 74145  1  0  0  0
 75146  1  0  0  0
 75147  1  0  0  0
 78148  1  0  0  0
M  END
$$$$
