### 
### Created by X-TOOL on Mon Sep 10 21:13:29 2018
### 

@<TRIPOS>MOLECULE
5eok_ligand
  146   150     1     0     0
SMALL
GAST_HUCK


@<TRIPOS>ATOM
      1 N          15.2260  -27.7500  -10.2670 N.4       1 HIS         0.2390
      2 CA         13.9690  -28.3060   -9.6980 C.3       1 HIS         0.0708
      3 C          13.4400  -27.4320   -8.5830 C.2       1 HIS         0.2282
      4 O          14.2060  -26.8970   -7.7880 O.2       1 HIS        -0.3906
      5 CB         14.2110  -29.7330   -9.1920 C.3       1 HIS         0.0347
      6 CG         13.1590  -30.7420   -9.6380 C.2       1 HIS         0.0005
      7 ND1        13.4840  -31.9260  -10.2010 N.2       1 HIS        -0.3251
      8 CD2        11.7620  -30.7030   -9.5850 C.2       1 HIS         0.0293
      9 CE1        12.3570  -32.6100  -10.4920 C.2       1 HIS         0.0907
     10 NE2        11.3050  -31.8600  -10.1150 N.pl3     1 HIS        -0.2752
     11 N          12.1210  -27.2580   -8.5450 N.am      1 ILE        -0.2606
     12 CA         11.4250  -26.7110   -7.3890 C.3       1 ILE         0.1336
     13 C          10.6590  -27.8780   -6.7560 C.2       1 ILE         0.2043
     14 O           9.9720  -28.6220   -7.4600 O.2       1 ILE        -0.3944
     15 CB         10.4740  -25.5570   -7.7850 C.3       1 ILE        -0.0037
     16 CG1        11.3010  -24.3100   -8.1350 C.3       1 ILE        -0.0491
     17 CG2         9.4510  -25.2790   -6.6790 C.3       1 ILE        -0.0582
     18 CD1        10.5050  -23.1070   -8.6140 C.3       1 ILE        -0.0648
     19 N          10.7950  -28.0570   -5.4420 N.am      1 TYR        -0.2621
     20 CA         10.0930  -29.1370   -4.7490 C.3       1 TYR         0.1392
     21 C           8.8000  -28.6970   -4.0870 C.2       1 TYR         0.2082
     22 O           8.6570  -27.5500   -3.6790 O.2       1 TYR        -0.3940
     23 CB         10.9990  -29.8170   -3.7440 C.3       1 TYR         0.0164
     24 CG         12.1880  -30.4160   -4.4180 C.ar      1 TYR        -0.0493
     25 CD1        13.2710  -29.6130   -4.7720 C.ar      1 TYR        -0.0685
     26 CD2        12.2280  -31.7770   -4.7410 C.ar      1 TYR        -0.0685
     27 CE1        14.3720  -30.1400   -5.4090 C.ar      1 TYR        -0.0398
     28 CE2        13.3350  -32.3170   -5.3840 C.ar      1 TYR        -0.0398
     29 CZ         14.4040  -31.4830   -5.7080 C.ar      1 TYR         0.0805
     30 OH         15.5260  -31.9530   -6.3390 O.3       1 TYR        -0.3376
     31 N           7.8210  -29.6070   -4.0110 N.am      1 PRO        -0.2497
     32 CA          6.6090  -29.1730   -3.3050 C.3       1 PRO         0.1338
     33 C           6.8170  -29.1180   -1.7700 C.2       1 PRO         0.2042
     34 O           7.8520  -29.5760   -1.2450 O.2       1 PRO        -0.3944
     35 CB          5.5630  -30.2230   -3.7240 C.3       1 PRO        -0.0104
     36 CG          6.3460  -31.4340   -4.1570 C.3       1 PRO        -0.0281
     37 CD          7.7110  -30.9710   -4.5840 C.3       1 PRO         0.0369
     38 N           5.8450  -28.5690   -1.0550 N.am      1 ASP        -0.2622
     39 CA          5.9570  -28.4760    0.3870 C.3       1 ASP         0.1423
     40 C           5.9220  -29.8100    1.1020 C.2       1 ASP         0.2057
     41 O           5.9170  -30.8720    0.4920 O.2       1 ASP        -0.3943
     42 CB          4.8440  -27.6040    0.9360 C.3       1 ASP         0.0406
     43 CG          5.2010  -26.1400    0.9280 C.2       1 ASP         0.0393
     44 OD1         6.3640  -25.7830    0.6070 O.co2     1 ASP        -0.5688
     45 OD2         4.3030  -25.3400    1.2620 O.co2     1 ASP        -0.5688
     46 N           5.9110  -29.7410    2.4190 N.am      1 PHE        -0.2618
     47 CA          5.6270  -30.8900    3.2290 C.3       1 PHE         0.1406
     48 C           4.1120  -31.0230    3.3820 C.2       1 PHE         0.2085
     49 O           3.4130  -30.0170    3.5000 O.2       1 PHE        -0.3940
     50 CB          6.2910  -30.7240    4.5850 C.3       1 PHE         0.0214
     51 CG          7.7170  -31.1690    4.6150 C.ar      1 PHE        -0.0386
     52 CD1         8.7230  -30.2810    4.9290 C.ar      1 PHE        -0.0601
     53 CD2         8.0540  -32.4930    4.3410 C.ar      1 PHE        -0.0601
     54 CE1        10.0500  -30.7020    4.9670 C.ar      1 PHE        -0.0686
     55 CE2         9.3710  -32.9190    4.3760 C.ar      1 PHE        -0.0686
     56 CZ         10.3730  -32.0220    4.6920 C.ar      1 PHE        -0.0687
     57 N           3.6000  -32.2700    3.3300 N.am      1 PRO        -0.2497
     58 CA          2.1920  -32.6540    3.5260 C.3       1 PRO         0.1338
     59 C           1.5540  -32.1330    4.7960 C.2       1 PRO         0.2042
     60 O           2.1540  -32.1900    5.8700 O.2       1 PRO        -0.3944
     61 CB          2.2630  -34.1720    3.6350 C.3       1 PRO        -0.0104
     62 CG          3.5070  -34.5720    2.9040 C.3       1 PRO        -0.0281
     63 CD          4.3840  -33.3650    2.7190 C.3       1 PRO         0.0369
     64 N           0.3240  -31.6560    4.6490 N.am      1 THR        -0.2613
     65 CA         -0.5680  -31.2870    5.7590 C.3       1 THR         0.1564
     66 C          -1.2720  -32.5260    6.3630 C.2       1 THR         0.2060
     67 O          -1.7670  -32.4780    7.4990 O.2       1 THR        -0.3943
     68 CB         -1.6350  -30.2960    5.2450 C.3       1 THR         0.0924
     69 OG1        -0.9860  -29.2860    4.4660 O.3       1 THR        -0.3874
     70 CG2        -2.4390  -29.6470    6.3880 C.3       1 THR        -0.0346
     71 N          -1.3060  -33.6180    5.5870 N.am      1 ASP        -0.2679
     72 CA         -2.0000  -34.8890    5.9190 C.3       1 ASP         0.1057
     73 C          -3.5150  -34.7350    6.1430 C.2       1 ASP         0.0618
     74 O          -4.0550  -33.6230    6.1790 O.co2     1 ASP        -0.5665
     75 CB         -1.3420  -35.6210    7.1130 C.3       1 ASP         0.0351
     76 CG          0.0070  -36.2760    6.7640 C.2       1 ASP         0.0387
     77 OD1         0.5700  -36.9380    7.6560 O.co2     1 ASP        -0.5688
     78 OD2         0.5160  -36.1380    5.6290 O.co2     1 ASP        -0.5688
     79 OXT        -4.2510  -35.7170    6.2960 O.co2     1 ASP        -0.5665
     80 H1         15.5550  -28.3513  -11.0061 H         1 HIS         0.2016
     81 H2         15.9258  -27.6929   -9.5438 H         1 HIS         0.2016
     82 H3         15.0490  -26.8292  -10.6368 H         1 HIS         0.2016
     83 H4         13.2130  -28.3418  -10.4963 H         1 HIS         0.1116
     84 H5         14.2236  -29.7114   -8.0923 H         1 HIS         0.0453
     85 H6         15.1903  -30.0691   -9.5634 H         1 HIS         0.0453
     86 H7         11.1542  -29.8905   -9.1897 H         1 HIS         0.0729
     87 H8         12.3078  -33.5961  -10.9514 H         1 HIS         0.1199
     88 H9         10.3143  -32.1240  -10.2140 H         1 HIS         0.2361
     89 H10        11.5829  -27.5149   -9.3478 H         1 ILE         0.1885
     90 H11        12.1608  -26.3225   -6.6696 H         1 ILE         0.0803
     91 H12         9.9193  -25.8615   -8.6848 H         1 ILE         0.0345
     92 H13        12.0090  -24.5857   -8.9304 H         1 ILE         0.0267
     93 H14        11.8586  -24.0103   -7.2354 H         1 ILE         0.0267
     94 H15         8.8852  -26.1974   -6.4637 H         1 ILE         0.0235
     95 H16         8.7586  -24.4908   -7.0096 H         1 ILE         0.0235
     96 H17         9.9747  -24.9493   -5.7696 H         1 ILE         0.0235
     97 H18        11.1922  -22.2770   -8.8348 H         1 ILE         0.0230
     98 H19         9.7982  -22.7989   -7.8294 H         1 ILE         0.0230
     99 H20         9.9486  -23.3744   -9.5244 H         1 ILE         0.0230
    100 H21        11.3872  -27.4423   -4.9211 H         1 TYR         0.1885
    101 H22         9.8254  -29.8839   -5.5109 H         1 TYR         0.0821
    102 H23        10.4367  -30.6120   -3.2324 H         1 TYR         0.0453
    103 H24        11.3390  -29.0754   -3.0062 H         1 TYR         0.0453
    104 H25        13.2459  -28.5541   -4.5415 H         1 TYR         0.0530
    105 H26        11.3889  -32.4148   -4.4876 H         1 TYR         0.0530
    106 H27        15.2075  -29.5018   -5.6731 H         1 TYR         0.0525
    107 H28        13.3670  -33.3722   -5.6303 H         1 TYR         0.0525
    108 H29        16.1363  -31.2373   -6.4722 H         1 TYR         0.2458
    109 H30         6.3033  -28.1744   -3.6506 H         1 PRO         0.0802
    110 H31         4.9525  -29.8440   -4.5569 H         1 PRO         0.0313
    111 H32         4.9100  -30.4729   -2.8748 H         1 PRO         0.0313
    112 H33         5.8378  -31.9266   -4.9990 H         1 PRO         0.0287
    113 H34         6.4360  -32.1406   -3.3188 H         1 PRO         0.0287
    114 H35         8.4925  -31.6302   -4.1780 H         1 PRO         0.0524
    115 H36         7.7890  -30.9421   -5.6808 H         1 PRO         0.0524
    116 H37         5.0292  -28.2167   -1.5136 H         1 ASP         0.1884
    117 H38         6.9218  -27.9989    0.6139 H         1 ASP         0.0819
    118 H39         4.6340  -27.9102    1.9714 H         1 ASP         0.0478
    119 H40         3.9443  -27.7511    0.3204 H         1 ASP         0.0478
    120 H41         6.1053  -28.8666    2.8635 H         1 PHE         0.1885
    121 H42         6.0234  -31.7923    2.7404 H         1 PHE         0.0823
    122 H43         5.7275  -31.3148    5.3221 H         1 PHE         0.0474
    123 H44         6.2535  -29.6601    4.8619 H         1 PHE         0.0474
    124 H45         8.4797  -29.2476    5.1479 H         1 PHE         0.0557
    125 H46         7.2714  -33.2019    4.0961 H         1 PHE         0.0557
    126 H47        10.8338  -29.9946    5.2127 H         1 PHE         0.0599
    127 H48         9.6148  -33.9521    4.1563 H         1 PHE         0.0599
    128 H49        11.4062  -32.3484    4.7248 H         1 PHE         0.0559
    129 H50         1.5899  -32.3365    2.6619 H         1 PRO         0.0802
    130 H51         1.3793  -34.6319    3.1686 H         1 PRO         0.0313
    131 H52         2.3224  -34.4786    4.6897 H         1 PRO         0.0313
    132 H53         3.2386  -34.9854    1.9206 H         1 PRO         0.0287
    133 H54         4.0471  -35.3328    3.4866 H         1 PRO         0.0287
    134 H55         5.3461  -33.4954    3.2361 H         1 PRO         0.0524
    135 H56         4.5648  -33.1706    1.6515 H         1 PRO         0.0524
    136 H57        -0.0207  -31.5392    3.7176 H         1 THR         0.1884
    137 H58         0.0286  -30.8014    6.5453 H         1 THR         0.0826
    138 H59        -2.3378  -30.8455    4.6015 H         1 THR         0.0639
    139 H60        -1.6342  -28.6703    4.1445 H         1 THR         0.2101
    140 H61        -3.1813  -28.9534    5.9662 H         1 THR         0.0257
    141 H62        -1.7554  -29.0946    7.0495 H         1 THR         0.0257
    142 H63        -2.9543  -30.4296    6.9642 H         1 THR         0.0257
    143 H64        -0.8243  -33.5737    4.7118 H         1 ASP         0.1876
    144 H65        -1.8799  -35.5412    5.0414 H         1 ASP         0.0745
    145 H66        -2.0297  -36.4052    7.4625 H         1 ASP         0.0471
    146 H67        -1.1766  -34.8920    7.9200 H         1 ASP         0.0471
@<TRIPOS>BOND
     1    1    2 1  
     2    2    3 1  
     3    2    5 1  
     4    3    4 2  
     5    3   11 am 
     6    5    6 1  
     7    6    7 1  
     8    6    8 2  
     9    7    9 2  
    10    8   10 1  
    11    9   10 1  
    12   11   12 1  
    13   12   13 1  
    14   12   15 1  
    15   13   14 2  
    16   13   19 am 
    17   15   16 1  
    18   15   17 1  
    19   16   18 1  
    20   19   20 1  
    21   20   21 1  
    22   20   23 1  
    23   21   22 2  
    24   21   31 am 
    25   23   24 1  
    26   24   25 ar 
    27   24   26 ar 
    28   25   27 ar 
    29   26   28 ar 
    30   27   29 ar 
    31   28   29 ar 
    32   29   30 1  
    33   31   32 1  
    34   31   37 1  
    35   32   33 1  
    36   32   35 1  
    37   33   34 2  
    38   33   38 am 
    39   35   36 1  
    40   36   37 1  
    41   38   39 1  
    42   39   40 1  
    43   39   42 1  
    44   40   41 2  
    45   40   46 am 
    46   42   43 1  
    47   43   44 ar 
    48   43   45 ar 
    49   46   47 1  
    50   47   48 1  
    51   47   50 1  
    52   48   49 2  
    53   48   57 am 
    54   50   51 1  
    55   51   52 ar 
    56   51   53 ar 
    57   52   54 ar 
    58   53   55 ar 
    59   54   56 ar 
    60   55   56 ar 
    61   57   58 1  
    62   57   63 1  
    63   58   59 1  
    64   58   61 1  
    65   59   60 2  
    66   59   64 am 
    67   61   62 1  
    68   62   63 1  
    69   64   65 1  
    70   65   66 1  
    71   65   68 1  
    72   66   67 2  
    73   66   71 am 
    74   68   69 1  
    75   68   70 1  
    76   71   72 1  
    77   72   73 1  
    78   72   75 1  
    79   73   74 ar 
    80   73   79 ar 
    81   75   76 1  
    82   76   77 ar 
    83   76   78 ar 
    84    1   80 1  
    85    1   81 1  
    86    1   82 1  
    87    2   83 1  
    88    5   84 1  
    89    5   85 1  
    90    8   86 1  
    91    9   87 1  
    92   10   88 1  
    93   11   89 1  
    94   12   90 1  
    95   15   91 1  
    96   16   92 1  
    97   16   93 1  
    98   17   94 1  
    99   17   95 1  
   100   17   96 1  
   101   18   97 1  
   102   18   98 1  
   103   18   99 1  
   104   19  100 1  
   105   20  101 1  
   106   23  102 1  
   107   23  103 1  
   108   25  104 1  
   109   26  105 1  
   110   27  106 1  
   111   28  107 1  
   112   30  108 1  
   113   32  109 1  
   114   35  110 1  
   115   35  111 1  
   116   36  112 1  
   117   36  113 1  
   118   37  114 1  
   119   37  115 1  
   120   38  116 1  
   121   39  117 1  
   122   42  118 1  
   123   42  119 1  
   124   46  120 1  
   125   47  121 1  
   126   50  122 1  
   127   50  123 1  
   128   52  124 1  
   129   53  125 1  
   130   54  126 1  
   131   55  127 1  
   132   56  128 1  
   133   58  129 1  
   134   61  130 1  
   135   61  131 1  
   136   62  132 1  
   137   62  133 1  
   138   63  134 1  
   139   63  135 1  
   140   64  136 1  
   141   65  137 1  
   142   68  138 1  
   143   69  139 1  
   144   70  140 1  
   145   70  141 1  
   146   70  142 1  
   147   71  143 1  
   148   72  144 1  
   149   75  145 1  
   150   75  146 1  
@<TRIPOS>SUBSTRUCTURE
     1 HIS         1

