4pg9_ligand
  -I-interpret- 

133136  0  0  0  0  0  0  0  0999 V2000
   56.7660   18.5390    5.0820 N   0  3  0  0  0
   57.9610   19.3120    4.6290 C   0  0  0  0  0
   57.6920   19.8370    3.2220 C   0  0  0  0  0
   57.7350   19.0880    2.2420 O   0  0  0  0  0
   59.2020   18.4220    4.6760 C   0  0  0  0  0
   60.5130   19.1580    4.5580 C   0  0  0  0  0
   61.1670   19.6330    5.6910 C   0  0  0  0  0
   61.1300   19.3210    3.3210 C   0  0  0  0  0
   62.3940   20.2800    5.5920 C   0  0  0  0  0
   62.3590   19.9680    3.2160 C   0  0  0  0  0
   62.9880   20.4490    4.3540 C   0  0  0  0  0
   57.4000   21.1300    3.1420 N   0  0  0  0  0
   56.9120   21.7420    1.9150 C   0  0  0  0  0
   57.9900   21.8210    0.8430 C   0  0  0  0  0
   59.1790   21.7920    1.1520 O   0  0  0  0  0
   56.3780   23.1360    2.2110 C   0  0  0  0  0
   57.5750   21.9110   -0.4310 N   0  0  0  0  0
   58.5310   22.2370   -1.4880 C   0  0  0  0  0
   59.1870   23.5870   -1.2090 C   0  0  0  0  0
   58.4890   24.5440   -0.8590 O   0  0  0  0  0
   57.6630   22.3270   -2.7450 C   0  0  0  0  0
   56.4280   21.5580   -2.4280 C   0  0  0  0  0
   56.2150   21.6980   -0.9550 C   0  0  0  0  0
   60.5090   23.6460   -1.3450 N   0  0  0  0  0
   61.2720   24.8730   -1.1030 C   0  0  0  0  0
   61.5620   25.6950   -2.3380 C   0  0  0  0  0
   62.1430   26.7740   -2.2360 O   0  0  0  0  0
   61.1620   25.1970   -3.5020 N   0  0  0  0  0
   61.3600   25.9220   -4.7480 C   0  0  0  0  0
   60.2280   25.6420   -5.7300 C   0  0  0  0  0
   59.9770   24.4910   -6.0900 O   0  0  0  0  0
   62.7040   25.5460   -5.3840 C   0  0  0  0  0
   62.9330   26.2300   -6.7260 C   0  0  0  0  0
   62.3540   27.2770   -7.0130 O   0  0  0  0  0
   63.7810   25.6360   -7.5570 N   0  0  0  0  0
   59.5320   26.7030   -6.1270 N   0  0  0  0  0
   58.6460   26.6630   -7.2750 C   0  0  0  0  0
   59.3060   27.5160   -8.3480 C   0  0  0  0  0
   59.2810   28.7420   -8.2580 O   0  0  0  0  0
   57.2730   27.2350   -6.9420 C   0  0  0  0  0
   56.5030   26.4520   -5.9100 C   0  0  0  0  0
   56.5410   26.8160   -4.5720 C   0  0  0  0  0
   55.7230   25.3570   -6.2690 C   0  0  0  0  0
   55.8330   26.1090   -3.6160 C   0  0  0  0  0
   55.0090   24.6440   -5.3190 C   0  0  0  0  0
   55.0720   25.0270   -3.9950 C   0  0  0  0  0
   54.3690   24.3360   -3.0410 O   0  0  0  0  0
   59.9240   26.8750   -9.3580 N   0  0  0  0  0
   60.5850   27.6690  -10.3990 C   0  0  0  0  0
   59.6250   28.6410  -11.0740 C   0  0  0  0  0
   58.4210   28.4020  -11.0990 O   0  0  0  0  0
   61.0860   26.6140  -11.3970 C   0  0  0  0  0
   60.3540   25.3560  -11.0630 C   0  0  0  0  0
   60.0510   25.4260   -9.6020 C   0  0  0  0  0
   60.1650   29.7260  -11.6140 N   0  0  0  0  0
   59.3530   30.7790  -12.2070 C   0  0  0  0  0
   58.6770   30.3030  -13.4850 C   0  0  0  0  0
   59.2490   29.5240  -14.2450 O   0  0  0  0  0
   60.2090   32.0040  -12.4920 C   0  0  0  0  0
   57.4590   30.7860  -13.7160 N   0  0  0  0  0
   56.7130   30.4470  -14.9260 C   0  0  0  0  0
   57.3070   31.1390  -16.1480 C   0  0  0  0  0
   58.0170   32.1460  -16.0360 O   0  0  0  0  0
   55.2360   30.8340  -14.7870 C   0  0  0  0  0
   54.4640   30.2340  -13.6050 C   0  0  0  0  0
   53.0270   30.7300  -13.5910 C   0  0  0  0  0
   54.5000   28.7180  -13.6220 C   0  0  0  0  0
   57.0780   30.6940  -17.2750 O   0  0  0  0  0
   55.9417   19.1388    5.0481 H   0  0  0  0  0
   56.6292   17.7361    4.4680 H   0  0  0  0  0
   56.9139   18.2160    6.0382 H   0  0  0  0  0
   58.1451   20.1599    5.2887 H   0  0  0  0  0
   59.1400   17.7472    3.8222 H   0  0  0  0  0
   59.2018   17.9299    5.6486 H   0  0  0  0  0
   60.7104   19.4958    6.6712 H   0  0  0  0  0
   60.6453   18.9375    2.4232 H   0  0  0  0  0
   62.8874   20.6537    6.4892 H   0  0  0  0  0
   62.8260   20.0961    2.2395 H   0  0  0  0  0
   63.9480   20.9590    4.2736 H   0  0  0  0  0
   57.5219   21.7144    3.9690 H   0  0  0  0  0
   56.1120   21.1097    1.5299 H   0  0  0  0  0
   55.5610   23.0658    2.9291 H   0  0  0  0  0
   57.1774   23.7491    2.6270 H   0  0  0  0  0
   56.0145   23.5880    1.2881 H   0  0  0  0  0
   59.3347   21.5057   -1.5736 H   0  0  0  0  0
   58.1761   21.9193   -3.6160 H   0  0  0  0  0
   57.4357   23.3617   -3.0014 H   0  0  0  0  0
   56.5338   20.5109   -2.7116 H   0  0  0  0  0
   55.5734   21.9401   -2.9864 H   0  0  0  0  0
   55.5381   22.5153   -0.7061 H   0  0  0  0  0
   55.7302   20.8252   -0.5177 H   0  0  0  0  0
   61.0108   22.8045   -1.6287 H   0  0  0  0  0
   62.2350   24.5702   -0.6918 H   0  0  0  0  0
   60.6676   25.4960   -0.4437 H   0  0  0  0  0
   60.7054   24.2852   -3.5233 H   0  0  0  0  0
   61.3626   26.9869   -4.5154 H   0  0  0  0  0
   62.7039   24.4693   -5.5535 H   0  0  0  0  0
   63.4955   25.8662   -4.7064 H   0  0  0  0  0
   63.9722   26.0473   -8.4706 H   0  0  0  0  0
   64.2413   24.7684   -7.2818 H   0  0  0  0  0
   59.6242   27.5753   -5.6064 H   0  0  0  0  0
   58.4925   25.6340   -7.6002 H   0  0  0  0  0
   56.6872   27.2136   -7.8610 H   0  0  0  0  0
   57.4339   28.2318   -6.5313 H   0  0  0  0  0
   57.1396   27.6747   -4.2680 H   0  0  0  0  0
   55.6727   25.0549   -7.3151 H   0  0  0  0  0
   55.8779   26.4075   -2.5686 H   0  0  0  0  0
   54.4028   23.7879   -5.6153 H   0  0  0  0  0
   53.8913   23.6147   -3.4570 H   0  0  0  0  0
   61.3822   28.2926   -9.9945 H   0  0  0  0  0
   62.1646   26.4769  -11.3202 H   0  0  0  0  0
   60.8972   26.9208  -12.4257 H   0  0  0  0  0
   60.9547   24.4774  -11.2982 H   0  0  0  0  0
   59.4401   25.2653  -11.6501 H   0  0  0  0  0
   59.1527   24.8717   -9.3301 H   0  0  0  0  0
   60.8221   24.9605   -8.9881 H   0  0  0  0  0
   61.1801   29.8255  -11.6137 H   0  0  0  0  0
   58.5737   31.0450  -11.4929 H   0  0  0  0  0
   60.6418   32.3680  -11.5602 H   0  0  0  0  0
   61.0070   31.7350  -13.1841 H   0  0  0  0  0
   59.5893   32.7836  -12.9352 H   0  0  0  0  0
   57.0344   31.4099  -13.0298 H   0  0  0  0  0
   56.7858   29.3678  -15.0609 H   0  0  0  0  0
   58.1054   32.3722  -15.1072 H   0  0  0  0  0
   54.7450   30.4567  -15.6840 H   0  0  0  0  0
   55.2255   31.9127  -14.6310 H   0  0  0  0  0
   54.9581   30.5674  -12.6924 H   0  0  0  0  0
   53.0198   31.8163  -13.5011 H   0  0  0  0  0
   52.5340   30.4376  -14.5181 H   0  0  0  0  0
   52.5005   30.2905  -12.7438 H   0  0  0  0  0
   54.0494   28.3555  -14.5459 H   0  0  0  0  0
   55.5345   28.3797  -13.5637 H   0  0  0  0  0
   53.9418   28.3330  -12.7686 H   0  0  0  0  0
  1  2  1  0  0  0
  2  3  1  0  0  0
  2  5  1  0  0  0
  3  4  2  0  0  0
  3 12  1  0  0  0
  5  6  1  0  0  0
  6  7  4  0  0  0
  6  8  4  0  0  0
  7  9  4  0  0  0
  8 10  4  0  0  0
  9 11  4  0  0  0
 10 11  4  0  0  0
 12 13  1  0  0  0
 13 14  1  0  0  0
 13 16  1  0  0  0
 14 15  2  0  0  0
 14 17  1  0  0  0
 17 18  1  0  0  0
 17 23  1  0  0  0
 18 19  1  0  0  0
 18 21  1  0  0  0
 19 20  2  0  0  0
 19 24  1  0  0  0
 21 22  1  0  0  0
 22 23  1  0  0  0
 24 25  1  0  0  0
 25 26  1  0  0  0
 26 27  2  0  0  0
 26 28  1  0  0  0
 28 29  1  0  0  0
 29 30  1  0  0  0
 29 32  1  0  0  0
 30 31  2  0  0  0
 30 36  1  0  0  0
 32 33  1  0  0  0
 33 34  2  0  0  0
 33 35  1  0  0  0
 36 37  1  0  0  0
 37 38  1  0  0  0
 37 40  1  0  0  0
 38 39  2  0  0  0
 38 48  1  0  0  0
 40 41  1  0  0  0
 41 42  4  0  0  0
 41 43  4  0  0  0
 42 44  4  0  0  0
 43 45  4  0  0  0
 44 46  4  0  0  0
 45 46  4  0  0  0
 46 47  1  0  0  0
 48 49  1  0  0  0
 48 54  1  0  0  0
 49 50  1  0  0  0
 49 52  1  0  0  0
 50 51  2  0  0  0
 50 55  1  0  0  0
 52 53  1  0  0  0
 53 54  1  0  0  0
 55 56  1  0  0  0
 56 57  1  0  0  0
 56 59  1  0  0  0
 57 58  2  0  0  0
 57 60  1  0  0  0
 60 61  1  0  0  0
 61 62  1  0  0  0
 61 64  1  0  0  0
 62 63  1  0  0  0
 62 68  2  0  0  0
 64 65  1  0  0  0
 65 66  1  0  0  0
 65 67  1  0  0  0
  1 69  1  0  0  0
  1 70  1  0  0  0
  1 71  1  0  0  0
  2 72  1  0  0  0
  5 73  1  0  0  0
  5 74  1  0  0  0
  7 75  1  0  0  0
  8 76  1  0  0  0
  9 77  1  0  0  0
 10 78  1  0  0  0
 11 79  1  0  0  0
 12 80  1  0  0  0
 13 81  1  0  0  0
 16 82  1  0  0  0
 16 83  1  0  0  0
 16 84  1  0  0  0
 18 85  1  0  0  0
 21 86  1  0  0  0
 21 87  1  0  0  0
 22 88  1  0  0  0
 22 89  1  0  0  0
 23 90  1  0  0  0
 23 91  1  0  0  0
 24 92  1  0  0  0
 25 93  1  0  0  0
 25 94  1  0  0  0
 28 95  1  0  0  0
 29 96  1  0  0  0
 32 97  1  0  0  0
 32 98  1  0  0  0
 35 99  1  0  0  0
 35100  1  0  0  0
 36101  1  0  0  0
 37102  1  0  0  0
 40103  1  0  0  0
 40104  1  0  0  0
 42105  1  0  0  0
 43106  1  0  0  0
 44107  1  0  0  0
 45108  1  0  0  0
 47109  1  0  0  0
 49110  1  0  0  0
 52111  1  0  0  0
 52112  1  0  0  0
 53113  1  0  0  0
 53114  1  0  0  0
 54115  1  0  0  0
 54116  1  0  0  0
 55117  1  0  0  0
 56118  1  0  0  0
 59119  1  0  0  0
 59120  1  0  0  0
 59121  1  0  0  0
 60122  1  0  0  0
 61123  1  0  0  0
 63124  1  0  0  0
 64125  1  0  0  0
 64126  1  0  0  0
 65127  1  0  0  0
 66128  1  0  0  0
 66129  1  0  0  0
 66130  1  0  0  0
 67131  1  0  0  0
 67132  1  0  0  0
 67133  1  0  0  0
M  END
$$$$
