3uqr_ligand
  -I-interpret- 

142146  0  0  0  0  0  0  0  0999 V2000
   12.6570   16.7420   33.9660 C   0  0  0  0  0
   14.1880   21.6700   33.7300 C   0  0  0  0  0
   15.2520   20.6760   33.3410 C   0  0  0  0  0
   12.7610   21.2740   33.7720 C   0  0  0  0  0
   14.8680   19.2770   32.9940 C   0  0  0  0  0
   12.3740   19.8670   33.4250 C   0  0  0  0  0
   11.9490   17.4770   31.7780 N   0  0  0  0  0
   13.4360   18.8800   33.0530 C   0  0  0  0  0
   13.0450   17.4550   32.7030 C   0  0  0  0  0
    9.5510   17.5100   24.7540 C   0  0  0  0  0
   13.0280   18.4420   25.2660 C   0  0  0  0  0
   13.2710   16.4730   30.1530 O   0  0  0  0  0
    6.3340   15.9190   28.7330 O   0  0  0  0  0
   10.9130   19.8730   24.3340 O   0  0  0  0  0
   11.4770   20.0730   26.6460 O   0  0  0  0  0
    9.6380   16.6890   30.0090 C   0  0  0  0  0
   11.2740   17.4980   28.1260 C   0  0  0  0  0
    8.7110   17.2510   27.6180 C   0  0  0  0  0
   12.1820   16.9450   30.4740 C   0  0  0  0  0
    7.1270   16.4450   29.5060 C   0  0  0  0  0
   11.0360   17.0270   29.5220 C   0  0  0  0  0
    8.5240   16.8010   29.0300 C   0  0  0  0  0
   10.1080   17.5960   27.1780 C   0  0  0  0  0
   10.3220   18.0380   25.8000 N   0  0  0  0  0
   11.4200   19.1560   25.5060 S   0  0  0  0  0
    6.8640   16.7660   30.8860 N   0  0  0  0  0
    5.5540   16.4290   31.4110 C   0  0  0  0  0
    5.6670   15.6220   32.6950 C   0  0  0  0  0
    7.0670   14.9910   32.8230 C   0  0  0  0  0
    7.5460   13.9730   31.8330 C   0  0  0  0  0
    7.9850   15.3890   33.9520 C   0  0  0  0  0
    8.9200   13.3730   31.9780 C   0  0  0  0  0
    9.3610   14.7780   34.0850 C   0  0  0  0  0
    9.8270   13.7680   33.0990 C   0  0  0  0  0
    4.7760   17.7430   31.5590 C   0  0  0  0  0
    5.4970   18.7990   32.0620 O   0  0  0  0  0
    3.9070   18.1050   30.3770 C   0  0  0  0  0
    2.8660   17.0100   30.1150 C   0  0  0  0  0
    3.0980   16.0720   29.3470 O   0  0  0  0  0
    1.5560   17.0990   30.7710 N   0  0  0  0  0
    0.6110   16.0090   30.4230 C   0  0  0  0  0
    0.3860   16.0760   28.9130 C   0  0  0  0  0
    0.5160   17.1290   28.3110 O   0  0  0  0  0
   -0.6960   16.1170   31.2040 C   0  0  0  0  0
   -1.7650   15.2030   30.6010 C   0  0  0  0  0
   -1.6450   13.8620   31.2480 C   0  0  0  0  0
   -3.0950   15.7810   30.9430 C   0  0  0  0  0
    0.0360   14.8880   28.2060 N   0  0  0  0  0
   -0.1980   14.9690   26.7750 C   0  0  0  0  0
   -1.5910   14.5440   26.4390 C   0  0  0  0  0
   -2.1420   13.6860   27.0990 O   0  0  0  0  0
    0.7430   14.0350   26.1020 C   0  0  0  0  0
   -2.3220   15.1200   25.3270 N   0  0  0  0  0
   -3.6800   14.5830   25.0810 C   0  0  0  0  0
   -4.7250   15.6790   25.0500 C   0  0  0  0  0
   -5.2820   15.9870   24.0160 O   0  0  0  0  0
   -3.7290   13.6890   23.8140 C   0  0  0  0  0
   -2.9040   12.4240   23.9750 C   0  0  0  0  0
   -3.4840   11.2620   24.7030 C   0  0  0  0  0
   -1.5100   12.3360   23.3970 C   0  0  0  0  0
   -2.6660   10.0070   24.8650 C   0  0  0  0  0
   -0.6930   11.0960   23.5480 C   0  0  0  0  0
   -1.2690    9.9270   24.2790 C   0  0  0  0  0
   -1.7440   16.1450   24.4650 C   0  0  0  0  0
   -6.1940   20.1990   23.6840 C   0  0  0  0  0
   -4.4650   18.7110   25.1880 O   0  0  0  0  0
   -5.6430   16.7580   28.5070 C   0  0  0  0  0
   -6.4000   17.7470   27.6960 C   0  0  0  0  0
   -4.5900   16.1740   27.5980 C   0  0  0  0  0
   -6.5950   19.2480   24.6210 O   0  0  0  0  0
   -5.6660   18.6130   25.4460 C   0  0  0  0  0
   -6.1060   17.4160   26.2530 C   0  0  0  0  0
   -5.0990   16.3750   26.2540 N   0  0  0  0  0
   11.8146   17.2567   34.4282 H   0  0  0  0  0
   12.3728   15.7165   33.7301 H   0  0  0  0  0
   13.5029   16.7370   34.6534 H   0  0  0  0  0
   14.4715   22.6916   33.9832 H   0  0  0  0  0
   16.2988   20.9785   33.3133 H   0  0  0  0  0
   11.9979   21.9998   34.0530 H   0  0  0  0  0
   15.6286   18.5536   32.7004 H   0  0  0  0  0
   11.3267   19.5654   33.4436 H   0  0  0  0  0
   11.0399   17.8574   32.0413 H   0  0  0  0  0
   13.8803   16.9322   32.2370 H   0  0  0  0  0
    9.6975   16.4310   24.7052 H   0  0  0  0  0
    8.4983   17.7273   24.9348 H   0  0  0  0  0
    9.8602   17.9629   23.8120 H   0  0  0  0  0
   12.9887   17.7302   24.4414 H   0  0  0  0  0
   13.7433   19.2308   25.0330 H   0  0  0  0  0
   13.3356   17.9282   26.1768 H   0  0  0  0  0
    9.4577   16.3761   31.0374 H   0  0  0  0  0
   12.2777   17.7673   27.7972 H   0  0  0  0  0
    7.8672   17.3266   26.9321 H   0  0  0  0  0
    7.5707   17.2124   31.4705 H   0  0  0  0  0
    5.0039   15.7759   30.7335 H   0  0  0  0  0
    4.9229   14.8257   32.6764 H   0  0  0  0  0
    5.5018   16.2862   33.5433 H   0  0  0  0  0
    6.9011   13.6672   31.0092 H   0  0  0  0  0
    7.6515   16.1270   34.6815 H   0  0  0  0  0
    9.2600   12.6357   31.2507 H   0  0  0  0  0
   10.0127   15.0785   34.9054 H   0  0  0  0  0
   10.8169   13.3212   33.1920 H   0  0  0  0  0
    4.0679   17.5079   32.3537 H   0  0  0  0  0
    4.9317   19.5729   32.1186 H   0  0  0  0  0
    4.5380   18.2101   29.4945 H   0  0  0  0  0
    3.3891   19.0394   30.5931 H   0  0  0  0  0
    1.3140   17.8514   31.4158 H   0  0  0  0  0
    1.0291   15.0409   30.6989 H   0  0  0  0  0
   -1.0483   17.1475   31.1597 H   0  0  0  0  0
   -0.5156   15.8146   32.2356 H   0  0  0  0  0
   -1.6487   15.1136   29.5209 H   0  0  0  0  0
   -0.6514   13.4560   31.0582 H   0  0  0  0  0
   -1.7983   13.9634   32.3224 H   0  0  0  0  0
   -2.3980   13.1915   30.8339 H   0  0  0  0  0
   -3.2014   15.8283   32.0268 H   0  0  0  0  0
   -3.1719   16.7847   30.5249 H   0  0  0  0  0
   -3.8813   15.1514   30.5266 H   0  0  0  0  0
   -0.0484   13.9976   28.6964 H   0  0  0  0  0
   -0.0513   15.9983   26.4477 H   0  0  0  0  0
    1.7680   14.3246   26.3334 H   0  0  0  0  0
    0.5618   13.0204   26.4568 H   0  0  0  0  0
    0.5866   14.0777   25.0241 H   0  0  0  0  0
   -3.9263   13.9405   25.9264 H   0  0  0  0  0
   -3.3189   14.2585   22.9800 H   0  0  0  0  0
   -4.7657   13.3992   23.6423 H   0  0  0  0  0
   -4.4915   11.3186   25.1152 H   0  0  0  0  0
   -1.0954   13.1905   22.8622 H   0  0  0  0  0
   -3.0790    9.1546   25.4045 H   0  0  0  0  0
    0.3122   11.0438   23.1298 H   0  0  0  0  0
   -0.6838    9.0143   24.3915 H   0  0  0  0  0
   -1.4861   17.0185   25.0639 H   0  0  0  0  0
   -0.8463   15.7524   23.9874 H   0  0  0  0  0
   -2.4692   16.4274   23.7018 H   0  0  0  0  0
   -5.7024   21.0264   24.1956 H   0  0  0  0  0
   -5.4997   19.7421   22.9788 H   0  0  0  0  0
   -7.0675   20.5694   23.1475 H   0  0  0  0  0
   -6.3035   15.9797   28.8892 H   0  0  0  0  0
   -5.1881   17.2329   29.3763 H   0  0  0  0  0
   -6.0988   18.7667   27.9359 H   0  0  0  0  0
   -7.4687   17.6916   27.9034 H   0  0  0  0  0
   -4.4143   15.1192   27.8094 H   0  0  0  0  0
   -3.6226   16.6559   27.7394 H   0  0  0  0  0
   -7.0203   17.0770   25.7659 H   0  0  0  0  0
  9  1  1  0  0  0
  3  2  4  0  0  0
  4  2  4  0  0  0
  5  3  4  0  0  0
  6  4  4  0  0  0
  8  5  4  0  0  0
  8  6  4  0  0  0
  7  9  1  0  0  0
 19  7  1  0  0  0
  9  8  1  0  0  0
 24 10  1  0  0  0
 25 11  1  0  0  0
 19 12  2  0  0  0
 20 13  2  0  0  0
 25 14  2  0  0  0
 25 15  2  0  0  0
 16 21  4  0  0  0
 22 16  4  0  0  0
 21 17  4  0  0  0
 23 17  4  0  0  0
 22 18  4  0  0  0
 18 23  4  0  0  0
 21 19  1  0  0  0
 20 22  1  0  0  0
 26 20  1  0  0  0
 23 24  1  0  0  0
 24 25  1  0  0  0
 27 26  1  0  0  0
 27 28  1  0  0  0
 35 27  1  0  0  0
 28 29  1  0  0  0
 29 30  4  0  0  0
 29 31  4  0  0  0
 30 32  4  0  0  0
 31 33  4  0  0  0
 32 34  4  0  0  0
 33 34  4  0  0  0
 35 36  1  0  0  0
 37 35  1  0  0  0
 38 37  1  0  0  0
 38 39  2  0  0  0
 40 38  1  0  0  0
 41 40  1  0  0  0
 42 41  1  0  0  0
 41 44  1  0  0  0
 42 43  2  0  0  0
 48 42  1  0  0  0
 44 45  1  0  0  0
 45 46  1  0  0  0
 45 47  1  0  0  0
 49 48  1  0  0  0
 50 49  1  0  0  0
 49 52  1  0  0  0
 50 51  2  0  0  0
 53 50  1  0  0  0
 54 53  1  0  0  0
 53 64  1  0  0  0
 55 54  1  0  0  0
 54 57  1  0  0  0
 55 56  2  0  0  0
 73 55  1  0  0  0
 57 58  1  0  0  0
 58 59  4  0  0  0
 58 60  4  0  0  0
 59 61  4  0  0  0
 60 62  4  0  0  0
 61 63  4  0  0  0
 62 63  4  0  0  0
 70 65  1  0  0  0
 71 66  2  0  0  0
 68 67  1  0  0  0
 67 69  1  0  0  0
 72 68  1  0  0  0
 69 73  1  0  0  0
 71 70  1  0  0  0
 71 72  1  0  0  0
 72 73  1  0  0  0
  1 74  1  0  0  0
  1 75  1  0  0  0
  1 76  1  0  0  0
  2 77  1  0  0  0
  3 78  1  0  0  0
  4 79  1  0  0  0
  5 80  1  0  0  0
  6 81  1  0  0  0
  7 82  1  0  0  0
  9 83  1  0  0  0
 10 84  1  0  0  0
 10 85  1  0  0  0
 10 86  1  0  0  0
 11 87  1  0  0  0
 11 88  1  0  0  0
 11 89  1  0  0  0
 16 90  1  0  0  0
 17 91  1  0  0  0
 18 92  1  0  0  0
 26 93  1  0  0  0
 27 94  1  0  0  0
 28 95  1  0  0  0
 28 96  1  0  0  0
 30 97  1  0  0  0
 31 98  1  0  0  0
 32 99  1  0  0  0
 33100  1  0  0  0
 34101  1  0  0  0
 35102  1  0  0  0
 36103  1  0  0  0
 37104  1  0  0  0
 37105  1  0  0  0
 40106  1  0  0  0
 41107  1  0  0  0
 44108  1  0  0  0
 44109  1  0  0  0
 45110  1  0  0  0
 46111  1  0  0  0
 46112  1  0  0  0
 46113  1  0  0  0
 47114  1  0  0  0
 47115  1  0  0  0
 47116  1  0  0  0
 48117  1  0  0  0
 49118  1  0  0  0
 52119  1  0  0  0
 52120  1  0  0  0
 52121  1  0  0  0
 54122  1  0  0  0
 57123  1  0  0  0
 57124  1  0  0  0
 59125  1  0  0  0
 60126  1  0  0  0
 61127  1  0  0  0
 62128  1  0  0  0
 63129  1  0  0  0
 64130  1  0  0  0
 64131  1  0  0  0
 64132  1  0  0  0
 65133  1  0  0  0
 65134  1  0  0  0
 65135  1  0  0  0
 67136  1  0  0  0
 67137  1  0  0  0
 68138  1  0  0  0
 68139  1  0  0  0
 69140  1  0  0  0
 69141  1  0  0  0
 72142  1  0  0  0
M  END
$$$$
