### 
### Created by X-TOOL on Mon Sep 10 21:13:10 2018
### 

@<TRIPOS>MOLECULE
3uqr_ligand
  142   146     1     0     0
SMALL
GAST_HUCK


@<TRIPOS>ATOM
      1 CAE        12.6570   16.7420   33.9660 C.3       1 QSC        -0.0320
      2 CAT        14.1880   21.6700   33.7300 C.ar      1 QSC        -0.0687
      3 CAY        15.2520   20.6760   33.3410 C.ar      1 QSC        -0.0685
      4 CAZ        12.7610   21.2740   33.7720 C.ar      1 QSC        -0.0685
      5 CBE        14.8680   19.2770   32.9940 C.ar      1 QSC        -0.0582
      6 CBF        12.3740   19.8670   33.4250 C.ar      1 QSC        -0.0582
      7 NBR        11.9490   17.4770   31.7780 N.am      1 QSC        -0.2723
      8 CCI        13.4360   18.8800   33.0530 C.ar      1 QSC        -0.0183
      9 CCL        13.0450   17.4550   32.7030 C.3       1 QSC         0.0723
     10 CAG         9.5510   17.5100   24.7540 C.3       1 ZSC         0.0445
     11 CAH        13.0280   18.4420   25.2660 C.3       1 ZSC         0.0790
     12 OAJ        13.2710   16.4730   30.1530 O.2       1 ZSC        -0.3845
     13 OAK         6.3340   15.9190   28.7330 O.2       1 ZSC        -0.3847
     14 OAP        10.9130   19.8730   24.3340 O.2       1 ZSC        -0.1500
     15 OAQ        11.4770   20.0730   26.6460 O.2       1 ZSC        -0.1500
     16 CBH         9.6380   16.6890   30.0090 C.ar      1 ZSC        -0.0393
     17 CBI        11.2740   17.4980   28.1260 C.ar      1 ZSC        -0.0214
     18 CBJ         8.7110   17.2510   27.6180 C.ar      1 ZSC        -0.0214
     19 CBX        12.1820   16.9450   30.4740 C.2       1 ZSC         0.2041
     20 CBY         7.1270   16.4450   29.5060 C.2       1 ZSC         0.2025
     21 CCF        11.0360   17.0270   29.5220 C.ar      1 ZSC         0.0398
     22 CCG         8.5240   16.8010   29.0300 C.ar      1 ZSC         0.0397
     23 CCI        10.1080   17.5960   27.1780 C.ar      1 ZSC         0.0754
     24 NCS        10.3220   18.0380   25.8000 N.am      1 ZSC        -0.1796
     25 SCU        11.4200   19.1560   25.5060 S.o2      1 ZSC         0.0593
     26 N           6.8640   16.7660   30.8860 N.am      1 PSA        -0.2786
     27 CA          5.5540   16.4290   31.4110 C.3       1 PSA         0.0789
     28 CB          5.6670   15.6220   32.6950 C.3       1 PSA         0.0065
     29 CG          7.0670   14.9910   32.8230 C.ar      1 PSA        -0.0408
     30 CD1         7.5460   13.9730   31.8330 C.ar      1 PSA        -0.0603
     31 CD2         7.9850   15.3890   33.9520 C.ar      1 PSA        -0.0603
     32 CE1         8.9200   13.3730   31.9780 C.ar      1 PSA        -0.0686
     33 CE2         9.3610   14.7780   34.0850 C.ar      1 PSA        -0.0686
     34 CZ          9.8270   13.7680   33.0990 C.ar      1 PSA        -0.0687
     35 CH          4.7760   17.7430   31.5590 C.3       1 PSA         0.0964
     36 OH          5.4970   18.7990   32.0620 O.3       1 PSA        -0.3870
     37 CM          3.9070   18.1050   30.3770 C.3       1 PSA         0.0657
     38 C           2.8660   17.0100   30.1150 C.2       1 PSA         0.1808
     39 O           3.0980   16.0720   29.3470 O.2       1 PSA        -0.3968
     40 N           1.5560   17.0990   30.7710 N.am      1 LEU        -0.2655
     41 CA          0.6110   16.0090   30.4230 C.3       1 LEU         0.1311
     42 C           0.3860   16.0760   28.9130 C.2       1 LEU         0.2039
     43 O           0.5160   17.1290   28.3110 O.2       1 LEU        -0.3944
     44 CB         -0.6960   16.1170   31.2040 C.3       1 LEU        -0.0101
     45 CG         -1.7650   15.2030   30.6010 C.3       1 LEU        -0.0425
     46 CD1        -1.6450   13.8620   31.2480 C.3       1 LEU        -0.0625
     47 CD2        -3.0950   15.7810   30.9430 C.3       1 LEU        -0.0625
     48 N           0.0360   14.8880   28.2060 N.am      1 ALA        -0.2640
     49 CA         -0.1980   14.9690   26.7750 C.3       1 ALA         0.1284
     50 C          -1.5910   14.5440   26.4390 C.2       1 ALA         0.2060
     51 O          -2.1420   13.6860   27.0990 O.2       1 ALA        -0.3942
     52 CB          0.7430   14.0350   26.1020 C.3       1 ALA        -0.0244
     53 N          -2.3220   15.1200   25.3270 N.am      1 ZAE        -0.2511
     54 CA         -3.6800   14.5830   25.0810 C.3       1 ZAE         0.1431
     55 C          -4.7250   15.6790   25.0500 C.2       1 ZAE         0.2087
     56 O          -5.2820   15.9870   24.0160 O.2       1 ZAE        -0.3940
     57 CB         -3.7290   13.6890   23.8140 C.3       1 ZAE         0.0216
     58 CG         -2.9040   12.4240   23.9750 C.ar      1 ZAE        -0.0385
     59 CD1        -3.4840   11.2620   24.7030 C.ar      1 ZAE        -0.0601
     60 CD2        -1.5100   12.3360   23.3970 C.ar      1 ZAE        -0.0601
     61 CE1        -2.6660   10.0070   24.8650 C.ar      1 ZAE        -0.0686
     62 CE2        -0.6930   11.0960   23.5480 C.ar      1 ZAE        -0.0686
     63 CZ         -1.2690    9.9270   24.2790 C.ar      1 ZAE        -0.0687
     64 C10        -1.7440   16.1450   24.4650 C.3       1 ZAE         0.0256
     65 CM         -6.1940   20.1990   23.6840 C.3       1 PLJ         0.0658
     66 O          -4.4650   18.7110   25.1880 O.2       1 PLJ        -0.3678
     67 CG         -5.6430   16.7580   28.5070 C.3       1 PLJ        -0.0280
     68 CB         -6.4000   17.7470   27.6960 C.3       1 PLJ        -0.0090
     69 CD         -4.5900   16.1740   27.5980 C.3       1 PLJ         0.0371
     70 OXT        -6.5950   19.2480   24.6210 O.3       1 PLJ        -0.2784
     71 C          -5.6660   18.6130   25.4460 C.2       1 PLJ         0.2595
     72 CA         -6.1060   17.4160   26.2530 C.3       1 PLJ         0.1450
     73 N          -5.0990   16.3750   26.2540 N.am      1 PLJ        -0.2483
     74 H          11.8146   17.2567   34.4282 H         1 QSC         0.0274
     75 H          12.3728   15.7165   33.7301 H         1 QSC         0.0274
     76 H          13.5029   16.7370   34.6534 H         1 QSC         0.0274
     77 H          14.4715   22.6916   33.9832 H         1 QSC         0.0559
     78 H          16.2988   20.9785   33.3133 H         1 QSC         0.0599
     79 H          11.9979   21.9998   34.0530 H         1 QSC         0.0599
     80 H          15.6286   18.5536   32.7004 H         1 QSC         0.0557
     81 H          11.3267   19.5654   33.4436 H         1 QSC         0.0557
     82 H          11.0399   17.8574   32.0413 H         1 QSC         0.1875
     83 H          13.8803   16.9322   32.2370 H         1 QSC         0.0716
     84 H           9.6975   16.4310   24.7052 H         1 ZSC         0.0517
     85 H           8.4983   17.7273   24.9348 H         1 ZSC         0.0517
     86 H           9.8602   17.9629   23.8120 H         1 ZSC         0.0517
     87 H          12.9887   17.7302   24.4414 H         1 ZSC         0.0487
     88 H          13.7433   19.2308   25.0330 H         1 ZSC         0.0487
     89 H          13.3356   17.9282   26.1768 H         1 ZSC         0.0487
     90 H           9.4577   16.3761   31.0374 H         1 ZSC         0.0576
     91 H          12.2777   17.7673   27.7972 H         1 ZSC         0.0566
     92 H           7.8672   17.3266   26.9321 H         1 ZSC         0.0566
     93 H           7.5707   17.2124   31.4705 H         1 PSA         0.1851
     94 H           5.0039   15.7759   30.7335 H         1 PSA         0.0605
     95 H           4.9229   14.8257   32.6764 H         1 PSA         0.0449
     96 H           5.5018   16.2862   33.5433 H         1 PSA         0.0449
     97 H           6.9011   13.6672   31.0092 H         1 PSA         0.0557
     98 H           7.6515   16.1270   34.6815 H         1 PSA         0.0557
     99 H           9.2600   12.6357   31.2507 H         1 PSA         0.0599
    100 H          10.0127   15.0785   34.9054 H         1 PSA         0.0599
    101 H          10.8169   13.3212   33.1920 H         1 PSA         0.0559
    102 H           4.0679   17.5079   32.3537 H         1 PSA         0.0643
    103 H           4.9317   19.5729   32.1186 H         1 PSA         0.2101
    104 H           4.5380   18.2101   29.4945 H         1 PSA         0.0529
    105 H           3.3891   19.0394   30.5931 H         1 PSA         0.0529
    106 H           1.3140   17.8514   31.4158 H         1 LEU         0.1883
    107 H           1.0291   15.0409   30.6989 H         1 LEU         0.0800
    108 H          -1.0483   17.1475   31.1597 H         1 LEU         0.0315
    109 H          -0.5156   15.8146   32.2356 H         1 LEU         0.0315
    110 H          -1.6487   15.1136   29.5209 H         1 LEU         0.0298
    111 H          -0.6514   13.4560   31.0582 H         1 LEU         0.0232
    112 H          -1.7983   13.9634   32.3224 H         1 LEU         0.0232
    113 H          -2.3980   13.1915   30.8339 H         1 LEU         0.0232
    114 H          -3.2014   15.8283   32.0268 H         1 LEU         0.0232
    115 H          -3.1719   16.7847   30.5249 H         1 LEU         0.0232
    116 H          -3.8813   15.1514   30.5266 H         1 LEU         0.0232
    117 H          -0.0484   13.9976   28.6964 H         1 ALA         0.1883
    118 H          -0.0513   15.9983   26.4477 H         1 ALA         0.0797
    119 H           1.7680   14.3246   26.3334 H         1 ALA         0.0277
    120 H           0.5618   13.0204   26.4568 H         1 ALA         0.0277
    121 H           0.5866   14.0777   25.0241 H         1 ALA         0.0277
    122 H          -3.9263   13.9405   25.9264 H         1 ZAE         0.0825
    123 H          -3.3189   14.2585   22.9800 H         1 ZAE         0.0474
    124 H          -4.7657   13.3992   23.6423 H         1 ZAE         0.0474
    125 H          -4.4915   11.3186   25.1152 H         1 ZAE         0.0557
    126 H          -1.0954   13.1905   22.8622 H         1 ZAE         0.0557
    127 H          -3.0790    9.1546   25.4045 H         1 ZAE         0.0599
    128 H           0.3122   11.0438   23.1298 H         1 ZAE         0.0599
    129 H          -0.6838    9.0143   24.3915 H         1 ZAE         0.0559
    130 H          -1.4861   17.0185   25.0639 H         1 ZAE         0.0488
    131 H          -0.8463   15.7524   23.9874 H         1 ZAE         0.0488
    132 H          -2.4692   16.4274   23.7018 H         1 ZAE         0.0488
    133 H          -5.7024   21.0264   24.1956 H         1 PLJ         0.0577
    134 H          -5.4997   19.7421   22.9788 H         1 PLJ         0.0577
    135 H          -7.0675   20.5694   23.1475 H         1 PLJ         0.0577
    136 H          -6.3035   15.9797   28.8892 H         1 PLJ         0.0287
    137 H          -5.1881   17.2329   29.3763 H         1 PLJ         0.0287
    138 H          -6.0988   18.7667   27.9359 H         1 PLJ         0.0314
    139 H          -7.4687   17.6916   27.9034 H         1 PLJ         0.0314
    140 H          -4.4143   15.1192   27.8094 H         1 PLJ         0.0524
    141 H          -3.6226   16.6559   27.7394 H         1 PLJ         0.0524
    142 H          -7.0203   17.0770   25.7659 H         1 PLJ         0.0818
@<TRIPOS>BOND
     1    9    1 1  
     2    3    2 ar 
     3    4    2 ar 
     4    5    3 ar 
     5    6    4 ar 
     6    8    5 ar 
     7    8    6 ar 
     8    7    9 1  
     9   19    7 am 
    10    9    8 1  
    11   24   10 1  
    12   25   11 1  
    13   19   12 2  
    14   20   13 2  
    15   25   14 2  
    16   25   15 2  
    17   16   21 ar 
    18   22   16 ar 
    19   21   17 ar 
    20   23   17 ar 
    21   22   18 ar 
    22   18   23 ar 
    23   21   19 1  
    24   20   22 1  
    25   26   20 am 
    26   23   24 1  
    27   24   25 am 
    28   27   26 1  
    29   27   28 1  
    30   35   27 1  
    31   28   29 1  
    32   29   30 ar 
    33   29   31 ar 
    34   30   32 ar 
    35   31   33 ar 
    36   32   34 ar 
    37   33   34 ar 
    38   35   36 1  
    39   37   35 1  
    40   38   37 1  
    41   38   39 2  
    42   40   38 am 
    43   41   40 1  
    44   42   41 1  
    45   41   44 1  
    46   42   43 2  
    47   48   42 am 
    48   44   45 1  
    49   45   46 1  
    50   45   47 1  
    51   49   48 1  
    52   50   49 1  
    53   49   52 1  
    54   50   51 2  
    55   53   50 am 
    56   54   53 1  
    57   53   64 1  
    58   55   54 1  
    59   54   57 1  
    60   55   56 2  
    61   73   55 am 
    62   57   58 1  
    63   58   59 ar 
    64   58   60 ar 
    65   59   61 ar 
    66   60   62 ar 
    67   61   63 ar 
    68   62   63 ar 
    69   70   65 1  
    70   71   66 2  
    71   68   67 1  
    72   67   69 1  
    73   72   68 1  
    74   69   73 1  
    75   71   70 1  
    76   71   72 1  
    77   72   73 1  
    78    1   74 1  
    79    1   75 1  
    80    1   76 1  
    81    2   77 1  
    82    3   78 1  
    83    4   79 1  
    84    5   80 1  
    85    6   81 1  
    86    7   82 1  
    87    9   83 1  
    88   10   84 1  
    89   10   85 1  
    90   10   86 1  
    91   11   87 1  
    92   11   88 1  
    93   11   89 1  
    94   16   90 1  
    95   17   91 1  
    96   18   92 1  
    97   26   93 1  
    98   27   94 1  
    99   28   95 1  
   100   28   96 1  
   101   30   97 1  
   102   31   98 1  
   103   32   99 1  
   104   33  100 1  
   105   34  101 1  
   106   35  102 1  
   107   36  103 1  
   108   37  104 1  
   109   37  105 1  
   110   40  106 1  
   111   41  107 1  
   112   44  108 1  
   113   44  109 1  
   114   45  110 1  
   115   46  111 1  
   116   46  112 1  
   117   46  113 1  
   118   47  114 1  
   119   47  115 1  
   120   47  116 1  
   121   48  117 1  
   122   49  118 1  
   123   52  119 1  
   124   52  120 1  
   125   52  121 1  
   126   54  122 1  
   127   57  123 1  
   128   57  124 1  
   129   59  125 1  
   130   60  126 1  
   131   61  127 1  
   132   62  128 1  
   133   63  129 1  
   134   64  130 1  
   135   64  131 1  
   136   64  132 1  
   137   65  133 1  
   138   65  134 1  
   139   65  135 1  
   140   67  136 1  
   141   67  137 1  
   142   68  138 1  
   143   68  139 1  
   144   69  140 1  
   145   69  141 1  
   146   72  142 1  
@<TRIPOS>SUBSTRUCTURE
     1 QSC         1

