5zyl_ligand
  -I-interpret- 

 61 65  0  0  0  0  0  0  0  0999 V2000
  -37.0870    3.9290   -8.0630 C   0  0  0  0  0
  -28.9170    4.8230   -4.7070 C   0  0  0  0  0
  -25.1430    5.3330   -7.4040 C   0  0  0  0  0
  -25.2550    5.2400   -5.8550 C   0  0  0  0  0
  -28.2570    5.6820   -5.6280 C   0  0  0  0  0
  -32.1780    4.3120   -6.5860 C   0  0  0  0  0
  -33.0540    3.8380   -5.5870 C   0  0  0  0  0
  -35.1540    2.8450   -4.6400 C   0  0  0  0  0
  -34.3380    3.3580   -5.8120 C   0  0  0  0  0
  -32.6780    0.8450   -5.0040 N   0  0  0  0  0
  -38.2830    3.1770   -8.7410 C   0  0  0  0  0
  -34.8210    3.3390   -7.1400 C   0  0  0  0  0
  -33.9660    3.8380   -8.1730 C   0  0  0  0  0
  -30.8290    4.7980   -6.2610 C   0  0  0  0  0
  -26.6060    6.1690   -3.7180 O   0  0  0  0  0
  -26.6310    6.3080   -5.1990 S   0  0  0  0  0
  -26.5260    7.6080   -5.8450 O   0  0  0  0  0
  -26.1540    4.4660   -7.9620 O   0  0  0  0  0
  -28.8200    6.0810   -6.8700 C   0  0  0  0  0
  -30.1280    5.6190   -7.1760 C   0  0  0  0  0
  -30.2110    4.4140   -5.0380 C   0  0  0  0  0
  -32.6470    4.3230   -7.9180 C   0  0  0  0  0
  -36.2450    2.8370   -7.4320 C   0  0  0  0  0
  -36.3590    1.6470   -8.4370 C   0  0  0  0  0
  -37.7980    1.7400   -8.9720 C   0  0  0  0  0
  -34.4990    1.8410   -3.6850 C   0  0  0  0  0
  -35.5750    1.3980   -4.6710 C   0  0  0  0  0
  -33.0630    1.3970   -3.8090 C   0  0  0  0  0
  -32.1200    1.4950   -2.7670 C   0  0  0  0  0
  -30.7790    1.0720   -2.9520 C   0  0  0  0  0
  -30.4030    0.5470   -4.2230 C   0  0  0  0  0
  -31.4150    0.4470   -5.2070 C   0  0  0  0  0
  -37.4312    4.6522   -7.3237 H   0  0  0  0  0
  -36.5161    4.5138   -8.7843 H   0  0  0  0  0
  -28.4352    4.4984   -3.7847 H   0  0  0  0  0
  -24.1509    5.0258   -7.7347 H   0  0  0  0  0
  -25.2935    6.3598   -7.7373 H   0  0  0  0  0
  -24.3162    5.5847   -5.4215 H   0  0  0  0  0
  -25.4664    4.2047   -5.5875 H   0  0  0  0  0
  -32.6952    3.8493   -4.5578 H   0  0  0  0  0
  -35.6662    3.7988   -4.5132 H   0  0  0  0  0
  -38.5702    3.6535   -9.6783 H   0  0  0  0  0
  -39.1724    3.1984   -8.1112 H   0  0  0  0  0
  -34.3369    3.8485   -9.1979 H   0  0  0  0  0
  -26.1107    4.5013   -8.9204 H   0  0  0  0  0
  -28.2689    6.7177   -7.5621 H   0  0  0  0  0
  -30.5943    5.8984   -8.1208 H   0  0  0  0  0
  -30.7624    3.7835   -4.3405 H   0  0  0  0  0
  -32.0195    4.6916   -8.7294 H   0  0  0  0  0
  -36.5822    2.5147   -6.4469 H   0  0  0  0  0
  -36.1587    0.6869   -7.9614 H   0  0  0  0  0
  -35.6191    1.7107   -9.2348 H   0  0  0  0  0
  -37.8271    1.4935  -10.0334 H   0  0  0  0  0
  -38.4442    1.0314   -8.4539 H   0  0  0  0  0
  -34.3548    1.7850   -2.6060 H   0  0  0  0  0
  -35.7235    0.6116   -5.4110 H   0  0  0  0  0
  -36.4999    0.8214   -4.6580 H   0  0  0  0  0
  -32.4258    1.9024   -1.8034 H   0  0  0  0  0
  -30.0534    1.1465   -2.1420 H   0  0  0  0  0
  -29.3788    0.2356   -4.4282 H   0  0  0  0  0
  -31.1541    0.0255   -6.1778 H   0  0  0  0  0
  1 11  1  0  0  0
 23  1  1  0  0  0
  2  5  4  0  0  0
 21  2  4  0  0  0
  4  3  1  0  0  0
  3 18  1  0  0  0
 16  4  1  0  0  0
  5 16  1  0  0  0
 19  5  4  0  0  0
  7  6  4  0  0  0
  6 14  1  0  0  0
  6 22  4  0  0  0
  9  7  4  0  0  0
  8  9  1  0  0  0
 26  8  1  0  0  0
 27  8  1  0  0  0
  9 12  4  0  0  0
 28 10  4  0  0  0
 10 32  4  0  0  0
 25 11  1  0  0  0
 12 13  4  0  0  0
 12 23  1  0  0  0
 13 22  4  0  0  0
 14 20  4  0  0  0
 14 21  4  0  0  0
 16 15  2  0  0  0
 16 17  2  0  0  0
 20 19  4  0  0  0
 23 24  1  0  0  0
 24 25  1  0  0  0
 26 27  1  0  0  0
 26 28  1  0  0  0
 28 29  4  0  0  0
 29 30  4  0  0  0
 30 31  4  0  0  0
 31 32  4  0  0  0
  1 33  1  0  0  0
  1 34  1  0  0  0
  2 35  1  0  0  0
  3 36  1  0  0  0
  3 37  1  0  0  0
  4 38  1  0  0  0
  4 39  1  0  0  0
  7 40  1  0  0  0
  8 41  1  0  0  0
 11 42  1  0  0  0
 11 43  1  0  0  0
 13 44  1  0  0  0
 18 45  1  0  0  0
 19 46  1  0  0  0
 20 47  1  0  0  0
 21 48  1  0  0  0
 22 49  1  0  0  0
 23 50  1  0  0  0
 24 51  1  0  0  0
 24 52  1  0  0  0
 25 53  1  0  0  0
 25 54  1  0  0  0
 26 55  1  0  0  0
 27 56  1  0  0  0
 27 57  1  0  0  0
 29 58  1  0  0  0
 30 59  1  0  0  0
 31 60  1  0  0  0
 32 61  1  0  0  0
M  END
$$$$
