1k3n_ligand
  -I-interpret- 

225227  0  0  0  0  0  0  0  0999 V2000
   -9.3640  -26.7210  -10.1300 N   0  3  0  0  0
   -9.8410  -26.0320  -11.3600 C   0  0  0  0  0
   -8.8300  -26.1700  -12.4940 C   0  0  0  0  0
   -7.6500  -26.4340  -12.2600 O   0  0  0  0  0
  -10.0720  -24.5560  -11.0320 C   0  0  0  0  0
  -11.5040  -24.2390  -10.6340 C   0  0  0  0  0
  -11.6110  -22.8710   -9.9810 C   0  0  0  0  0
  -12.8730  -22.1440  -10.4140 C   0  0  0  0  0
  -12.7240  -20.6650  -10.3140 N   0  3  0  0  0
   -9.3010  -25.9860  -13.7240 N   0  0  0  0  0
   -8.4400  -26.0890  -14.8960 C   0  0  0  0  0
   -8.9880  -25.2540  -16.0480 C   0  0  0  0  0
  -10.0470  -25.5560  -16.5980 O   0  0  0  0  0
   -8.3050  -27.5510  -15.3280 C   0  0  0  0  0
   -7.0880  -28.2500  -14.7420 C   0  0  0  0  0
   -6.1060  -28.6670  -15.8250 C   0  0  0  0  0
   -4.6680  -28.3980  -15.4100 C   0  0  0  0  0
   -4.1360  -27.1520  -16.0250 N   0  3  0  0  0
   -8.2610  -24.2010  -16.4090 N   0  0  0  0  0
   -8.6750  -23.3230  -17.4950 C   0  0  0  0  0
   -7.4620  -22.7720  -18.2420 C   0  0  0  0  0
   -6.3190  -23.0320  -17.8650 O   0  0  0  0  0
   -9.5220  -22.1700  -16.9520 C   0  0  0  0  0
  -10.7530  -21.8710  -17.7930 C   0  0  0  0  0
  -10.8940  -20.1260  -18.2310 S   0  0  0  0  0
  -12.3330  -19.6510  -17.2780 C   0  0  0  0  0
   -7.7200  -22.0120  -19.3000 N   0  0  0  0  0
   -6.6490  -21.4250  -20.0990 C   0  0  0  0  0
   -6.3060  -20.0250  -19.6020 C   0  0  0  0  0
   -7.1690  -19.3040  -19.1020 O   0  0  0  0  0
   -7.0540  -21.3710  -21.5730 C   0  0  0  0  0
   -7.8560  -22.4870  -21.9140 O   0  0  0  0  0
   -5.8710  -21.3500  -22.5170 C   0  0  0  0  0
   -5.0400  -19.6460  -19.7450 N   0  0  0  0  0
   -4.5820  -18.3310  -19.3110 C   0  0  0  0  0
   -5.2310  -17.2280  -20.1410 C   0  0  0  0  0
   -5.7720  -17.4830  -21.2170 O   0  0  0  0  0
   -3.0600  -18.2370  -19.4170 C   0  0  0  0  0
   -2.5170  -18.7290  -20.7290 C   0  0  0  0  0
   -2.8120  -18.0650  -21.9090 C   0  0  0  0  0
   -1.7110  -19.8540  -20.7810 C   0  0  0  0  0
   -2.3130  -18.5160  -23.1170 C   0  0  0  0  0
   -1.2080  -20.3090  -21.9870 C   0  0  0  0  0
   -1.5110  -19.6390  -23.1560 C   0  0  0  0  0
   -5.1720  -16.0010  -19.6330 N   0  0  0  0  0
   -5.7530  -14.8570  -20.3270 C   0  0  0  0  0
   -4.6730  -14.0380  -21.0260 C   0  0  0  0  0
   -4.6890  -13.8840  -22.2470 O   0  0  0  0  0
   -6.5220  -13.9750  -19.3430 C   0  0  0  0  0
   -7.5290  -13.0530  -20.0120 C   0  0  0  0  0
   -8.7070  -12.7280  -19.1110 C   0  0  0  0  0
   -8.9640  -11.5640  -18.8040 O   0  0  0  0  0
   -9.4280  -13.7570  -18.6870 N   0  0  0  0  0
   -3.7350  -13.5160  -20.2430 N   0  0  0  0  0
   -2.6460  -12.7120  -20.7850 C   0  0  0  0  0
   -2.5180  -11.3680  -20.0390 C   0  0  0  0  0
   -1.3630  -10.5440  -20.5890 C   0  0  0  0  0
   -3.7100  -10.6390  -20.1610 O   0  0  0  0  0
   -4.2150   -9.8440  -18.9170 P   0  0  0  0  0
   -5.6020   -9.2940  -19.3390 O   0  0  0  0  0
   -4.4080  -10.9170  -17.8160 O   0  0  0  0  0
   -3.2660   -8.7570  -18.5030 O   0  0  0  0  0
   -1.3200  -13.4650  -20.6960 C   0  0  0  0  0
   -0.6500  -13.4370  -19.6630 O   0  0  0  0  0
   -0.9200  -14.1520  -21.7820 N   0  0  0  0  0
    0.3350  -14.9130  -21.8140 C   0  0  0  0  0
    1.5610  -14.0100  -21.7340 C   0  0  0  0  0
    2.0820  -13.5610  -22.7560 O   0  0  0  0  0
    0.2850  -15.6340  -23.1640 C   0  0  0  0  0
   -0.6340  -14.8160  -24.0010 C   0  0  0  0  0
   -1.6530  -14.2430  -23.0580 C   0  0  0  0  0
    2.0210  -13.7500  -20.5150 N   0  0  0  0  0
    3.1870  -12.9020  -20.3010 C   0  0  0  0  0
    4.4770  -13.6870  -20.5140 C   0  0  0  0  0
    4.7080  -14.7080  -19.8670 O   0  0  0  0  0
    3.1640  -12.3130  -18.8900 C   0  0  0  0  0
    1.9390  -11.6440  -18.6460 O   0  0  0  0  0
    4.2850  -11.3270  -18.6340 C   0  0  0  0  0
    5.3160  -13.2030  -21.4250 N   0  0  0  0  0
    6.5820  -13.8610  -21.7220 C   0  0  0  0  0
    7.4650  -13.9300  -20.4750 C   0  0  0  0  0
    7.7160  -12.9130  -19.8300 O   0  0  0  0  0
    7.3160  -13.1150  -22.8390 C   0  0  0  0  0
    6.6530  -13.2980  -24.1890 C   0  0  0  0  0
    6.2360  -14.4340  -24.4970 O   0  0  0  0  0
    6.5500  -12.3040  -24.9390 O   0  0  0  0  0
    7.9500  -15.1340  -20.1170 N   0  0  0  0  0
    8.8050  -15.3160  -18.9390 C   0  0  0  0  0
   10.0120  -14.3850  -18.9520 C   0  0  0  0  0
   10.9520  -14.5830  -19.7220 O   0  0  0  0  0
    9.2560  -16.7750  -19.0460 C   0  0  0  0  0
    8.1980  -17.4430  -19.8560 C   0  0  0  0  0
    7.7070  -16.4040  -20.8250 C   0  0  0  0  0
    9.9800  -13.3710  -18.0940 N   0  0  0  0  0
   11.0720  -12.4080  -18.0070 C   0  0  0  0  0
   10.8610  -11.4480  -16.8410 C   0  0  0  0  0
    9.8760  -11.5480  -16.1110 O   0  0  0  0  0
   11.1910  -11.6220  -19.3140 C   0  0  0  0  0
    9.9790  -10.7550  -19.6620 C   0  0  0  0  0
   10.1850   -9.3280  -19.1740 C   0  0  0  0  0
    9.7200  -10.7740  -21.1610 C   0  0  0  0  0
   11.7930  -10.5150  -16.6740 N   0  0  0  0  0
   11.7080   -9.5350  -15.5970 C   0  0  0  0  0
   12.2250   -8.1760  -16.0570 C   0  0  0  0  0
   13.3560   -8.1210  -16.5850 O   0  0  0  0  0
   12.5060  -10.0130  -14.3810 C   0  0  0  0  0
   11.6620  -10.7490  -13.3530 C   0  0  0  0  0
   11.2920   -9.8790  -12.1680 C   0  0  0  0  0
   12.1680   -9.1260  -11.6880 O   0  0  0  0  0
   10.1280   -9.9470  -11.7220 O   0  0  0  0  0
   11.4940   -7.1780  -15.8860 O   0  0  0  0  0
   -9.2056  -27.7077  -10.3342 H   0  0  0  0  0
   -8.4923  -26.2928   -9.8182 H   0  0  0  0  0
  -10.0684  -26.6330   -9.3976 H   0  0  0  0  0
  -10.7714  -26.4922  -11.6926 H   0  0  0  0  0
   -9.8477  -23.9821  -11.9311 H   0  0  0  0  0
   -9.4338  -24.3054  -10.1846 H   0  0  0  0  0
  -11.8376  -24.9902   -9.9182 H   0  0  0  0  0
  -12.1207  -24.2416  -11.5328 H   0  0  0  0  0
  -10.7491  -22.2760  -10.2831 H   0  0  0  0  0
  -11.6443  -23.0063   -8.8999 H   0  0  0  0  0
  -13.6867  -22.4508   -9.7569 H   0  0  0  0  0
  -13.0736  -22.3977  -11.4549 H   0  0  0  0  0
  -13.5899  -20.2163  -10.6127 H   0  0  0  0  0
  -12.5231  -20.4093   -9.3472 H   0  0  0  0  0
  -11.9573  -20.3604  -10.9139 H   0  0  0  0  0
  -10.2892  -25.7674  -13.8506 H   0  0  0  0  0
   -7.4558  -25.7042  -14.6288 H   0  0  0  0  0
   -8.1973  -27.5624  -16.4126 H   0  0  0  0  0
   -9.1887  -28.0799  -14.9710 H   0  0  0  0  0
   -7.4240  -29.1453  -14.2188 H   0  0  0  0  0
   -6.5839  -27.5567  -14.0687 H   0  0  0  0  0
   -6.3189  -28.0889  -16.7242 H   0  0  0  0  0
   -6.2197  -29.7369  -15.9998 H   0  0  0  0  0
   -4.0538  -29.2336  -15.7455 H   0  0  0  0  0
   -4.6412  -28.2824  -14.3265 H   0  0  0  0  0
   -3.1726  -27.0092  -15.7219 H   0  0  0  0  0
   -4.1650  -27.2365  -17.0411 H   0  0  0  0  0
   -4.7069  -26.3591  -15.7321 H   0  0  0  0  0
   -7.3919  -24.0031  -15.9132 H   0  0  0  0  0
   -9.2745  -23.9071  -18.1932 H   0  0  0  0  0
   -8.8983  -21.2761  -16.9558 H   0  0  0  0  0
   -9.8665  -22.4570  -15.9585 H   0  0  0  0  0
  -11.6314  -22.1399  -17.2063 H   0  0  0  0  0
  -10.6719  -22.4418  -18.7181 H   0  0  0  0  0
  -13.1884  -20.2495  -17.5913 H   0  0  0  0  0
  -12.1379  -19.8201  -16.2190 H   0  0  0  0  0
  -12.5458  -18.5952  -17.4454 H   0  0  0  0  0
   -8.6900  -21.8342  -19.5605 H   0  0  0  0  0
   -5.7653  -22.0547  -19.9959 H   0  0  0  0  0
   -7.6068  -20.4385  -21.6872 H   0  0  0  0  0
   -8.0987  -22.4338  -22.8413 H   0  0  0  0  0
   -5.2590  -20.4718  -22.3111 H   0  0  0  0  0
   -5.2758  -22.2515  -22.3716 H   0  0  0  0  0
   -6.2293  -21.3116  -23.5457 H   0  0  0  0  0
   -4.3725  -20.2905  -20.1686 H   0  0  0  0  0
   -4.8749  -18.1973  -18.2696 H   0  0  0  0  0
   -2.6382  -18.8652  -18.6324 H   0  0  0  0  0
   -2.7903  -17.1849  -19.3255 H   0  0  0  0  0
   -3.4443  -17.1775  -21.8846 H   0  0  0  0  0
   -1.4701  -20.3871  -19.8613 H   0  0  0  0  0
   -2.5528  -17.9850  -24.0382 H   0  0  0  0  0
   -0.5736  -21.1949  -22.0144 H   0  0  0  0  0
   -1.1176  -19.9962  -24.1077 H   0  0  0  0  0
   -4.7090  -15.8558  -18.7358 H   0  0  0  0  0
   -6.4426  -15.2337  -21.0824 H   0  0  0  0  0
   -5.7944  -13.3469  -18.8291 H   0  0  0  0  0
   -7.0760  -14.6353  -18.6758 H   0  0  0  0  0
   -7.9125  -13.5596  -20.8977 H   0  0  0  0  0
   -7.0217  -12.1188  -20.2528 H   0  0  0  0  0
  -10.2331  -13.6003  -18.0806 H   0  0  0  0  0
   -9.1775  -14.7052  -18.9672 H   0  0  0  0  0
   -3.7778  -13.6819  -19.2375 H   0  0  0  0  0
   -2.8798  -12.5139  -21.8310 H   0  0  0  0  0
   -2.3221  -11.5821  -18.9884 H   0  0  0  0  0
   -0.4328  -11.0996  -20.4698 H   0  0  0  0  0
   -1.5339  -10.3417  -21.6463 H   0  0  0  0  0
   -1.2979   -9.6026  -20.0435 H   0  0  0  0  0
   -6.1706  -10.0243  -19.5938 H   0  0  0  0  0
   -5.0208  -11.5870  -18.1277 H   0  0  0  0  0
    0.4230  -15.5877  -20.9625 H   0  0  0  0  0
   -0.0665  -16.6607  -23.0618 H   0  0  0  0  0
    1.2741  -15.7197  -23.6140 H   0  0  0  0  0
   -1.1077  -15.4210  -24.7741 H   0  0  0  0  0
   -0.0940  -14.0276  -24.5254 H   0  0  0  0  0
   -2.0378  -13.2790  -23.3908 H   0  0  0  0  0
   -2.5496  -14.8584  -22.9842 H   0  0  0  0  0
    1.5459  -14.1543  -19.7080 H   0  0  0  0  0
    3.1518  -12.0900  -21.0273 H   0  0  0  0  0
    3.2901  -13.1634  -18.2199 H   0  0  0  0  0
    1.9448  -11.2823  -17.7568 H   0  0  0  0  0
    5.2444  -11.8273  -18.7660 H   0  0  0  0  0
    4.2060  -10.4983  -19.3377 H   0  0  0  0  0
    4.2084  -10.9484  -17.6147 H   0  0  0  0  0
    5.0676  -12.3510  -21.9279 H   0  0  0  0  0
    6.3680  -14.8778  -22.0512 H   0  0  0  0  0
    8.3278  -13.5153  -22.9034 H   0  0  0  0  0
    7.3039  -12.0519  -22.5989 H   0  0  0  0  0
    6.9342  -11.5375  -24.5071 H   0  0  0  0  0
    8.2764  -15.0869  -18.0137 H   0  0  0  0  0
    9.3686  -17.2376  -18.0655 H   0  0  0  0  0
   10.2382  -16.8628  -19.5104 H   0  0  0  0  0
    7.3887  -17.8109  -19.2253 H   0  0  0  0  0
    8.5896  -18.3170  -20.3764 H   0  0  0  0  0
    8.2195  -16.4523  -21.7858 H   0  0  0  0  0
    6.6588  -16.5413  -21.0904 H   0  0  0  0  0
    9.1718  -13.2634  -17.4811 H   0  0  0  0  0
   11.9964  -12.9598  -17.8363 H   0  0  0  0  0
   11.2922  -12.3558  -20.1136 H   0  0  0  0  0
   12.0379  -10.9457  -19.1978 H   0  0  0  0  0
    9.1057  -11.1685  -19.1576 H   0  0  0  0  0
   10.3194   -9.3311  -18.0923 H   0  0  0  0  0
   11.0703   -8.9067  -19.6502 H   0  0  0  0  0
    9.3122   -8.7279  -19.4312 H   0  0  0  0  0
   10.5941  -10.3866  -21.6844 H   0  0  0  0  0
    9.5267  -11.7975  -21.4821 H   0  0  0  0  0
    8.8542  -10.1514  -21.3868 H   0  0  0  0  0
   12.5864  -10.4836  -17.3142 H   0  0  0  0  0
   10.6600   -9.4289  -15.3166 H   0  0  0  0  0
   13.7372   -9.0016  -16.6148 H   0  0  0  0  0
   12.9203   -9.1305  -13.8935 H   0  0  0  0  0
   13.2651  -10.7081  -14.7399 H   0  0  0  0  0
   12.2466  -11.5903  -12.9807 H   0  0  0  0  0
   10.7382  -11.0610  -13.8402 H   0  0  0  0  0
   12.9850   -9.2328  -12.1806 H   0  0  0  0  0
  1  2  1  0  0  0
  2  3  1  0  0  0
  2  5  1  0  0  0
  3  4  2  0  0  0
  3 10  1  0  0  0
  5  6  1  0  0  0
  6  7  1  0  0  0
  7  8  1  0  0  0
  8  9  1  0  0  0
 10 11  1  0  0  0
 11 12  1  0  0  0
 11 14  1  0  0  0
 12 13  2  0  0  0
 12 19  1  0  0  0
 14 15  1  0  0  0
 15 16  1  0  0  0
 16 17  1  0  0  0
 17 18  1  0  0  0
 19 20  1  0  0  0
 20 21  1  0  0  0
 20 23  1  0  0  0
 21 22  2  0  0  0
 21 27  1  0  0  0
 23 24  1  0  0  0
 24 25  1  0  0  0
 25 26  1  0  0  0
 27 28  1  0  0  0
 28 29  1  0  0  0
 28 31  1  0  0  0
 29 30  2  0  0  0
 29 34  1  0  0  0
 31 32  1  0  0  0
 31 33  1  0  0  0
 34 35  1  0  0  0
 35 36  1  0  0  0
 35 38  1  0  0  0
 36 37  2  0  0  0
 36 45  1  0  0  0
 38 39  1  0  0  0
 39 40  4  0  0  0
 39 41  4  0  0  0
 40 42  4  0  0  0
 41 43  4  0  0  0
 42 44  4  0  0  0
 43 44  4  0  0  0
 45 46  1  0  0  0
 46 47  1  0  0  0
 46 49  1  0  0  0
 47 48  2  0  0  0
 47 54  1  0  0  0
 49 50  1  0  0  0
 50 51  1  0  0  0
 51 52  2  0  0  0
 51 53  1  0  0  0
 54 55  1  0  0  0
 55 56  1  0  0  0
 55 63  1  0  0  0
 56 57  1  0  0  0
 56 58  1  0  0  0
 58 59  1  0  0  0
 59 60  1  0  0  0
 59 61  1  0  0  0
 59 62  2  0  0  0
 63 64  2  0  0  0
 63 65  1  0  0  0
 65 66  1  0  0  0
 65 71  1  0  0  0
 66 67  1  0  0  0
 66 69  1  0  0  0
 67 68  2  0  0  0
 67 72  1  0  0  0
 69 70  1  0  0  0
 70 71  1  0  0  0
 72 73  1  0  0  0
 73 74  1  0  0  0
 73 76  1  0  0  0
 74 75  2  0  0  0
 74 79  1  0  0  0
 76 77  1  0  0  0
 76 78  1  0  0  0
 79 80  1  0  0  0
 80 81  1  0  0  0
 80 83  1  0  0  0
 81 82  2  0  0  0
 81 87  1  0  0  0
 83 84  1  0  0  0
 84 85  2  0  0  0
 84 86  1  0  0  0
 87 88  1  0  0  0
 87 93  1  0  0  0
 88 89  1  0  0  0
 88 91  1  0  0  0
 89 90  2  0  0  0
 89 94  1  0  0  0
 91 92  1  0  0  0
 92 93  1  0  0  0
 94 95  1  0  0  0
 95 96  1  0  0  0
 95 98  1  0  0  0
 96 97  2  0  0  0
 96102  1  0  0  0
 98 99  1  0  0  0
 99100  1  0  0  0
 99101  1  0  0  0
102103  1  0  0  0
103104  1  0  0  0
103106  1  0  0  0
104105  1  0  0  0
104111  2  0  0  0
106107  1  0  0  0
107108  1  0  0  0
108109  1  0  0  0
108110  2  0  0  0
  1112  1  0  0  0
  1113  1  0  0  0
  1114  1  0  0  0
  2115  1  0  0  0
  5116  1  0  0  0
  5117  1  0  0  0
  6118  1  0  0  0
  6119  1  0  0  0
  7120  1  0  0  0
  7121  1  0  0  0
  8122  1  0  0  0
  8123  1  0  0  0
  9124  1  0  0  0
  9125  1  0  0  0
  9126  1  0  0  0
 10127  1  0  0  0
 11128  1  0  0  0
 14129  1  0  0  0
 14130  1  0  0  0
 15131  1  0  0  0
 15132  1  0  0  0
 16133  1  0  0  0
 16134  1  0  0  0
 17135  1  0  0  0
 17136  1  0  0  0
 18137  1  0  0  0
 18138  1  0  0  0
 18139  1  0  0  0
 19140  1  0  0  0
 20141  1  0  0  0
 23142  1  0  0  0
 23143  1  0  0  0
 24144  1  0  0  0
 24145  1  0  0  0
 26146  1  0  0  0
 26147  1  0  0  0
 26148  1  0  0  0
 27149  1  0  0  0
 28150  1  0  0  0
 31151  1  0  0  0
 32152  1  0  0  0
 33153  1  0  0  0
 33154  1  0  0  0
 33155  1  0  0  0
 34156  1  0  0  0
 35157  1  0  0  0
 38158  1  0  0  0
 38159  1  0  0  0
 40160  1  0  0  0
 41161  1  0  0  0
 42162  1  0  0  0
 43163  1  0  0  0
 44164  1  0  0  0
 45165  1  0  0  0
 46166  1  0  0  0
 49167  1  0  0  0
 49168  1  0  0  0
 50169  1  0  0  0
 50170  1  0  0  0
 53171  1  0  0  0
 53172  1  0  0  0
 54173  1  0  0  0
 55174  1  0  0  0
 56175  1  0  0  0
 57176  1  0  0  0
 57177  1  0  0  0
 57178  1  0  0  0
 60179  1  0  0  0
 61180  1  0  0  0
 66181  1  0  0  0
 69182  1  0  0  0
 69183  1  0  0  0
 70184  1  0  0  0
 70185  1  0  0  0
 71186  1  0  0  0
 71187  1  0  0  0
 72188  1  0  0  0
 73189  1  0  0  0
 76190  1  0  0  0
 77191  1  0  0  0
 78192  1  0  0  0
 78193  1  0  0  0
 78194  1  0  0  0
 79195  1  0  0  0
 80196  1  0  0  0
 83197  1  0  0  0
 83198  1  0  0  0
 86199  1  0  0  0
 88200  1  0  0  0
 91201  1  0  0  0
 91202  1  0  0  0
 92203  1  0  0  0
 92204  1  0  0  0
 93205  1  0  0  0
 93206  1  0  0  0
 94207  1  0  0  0
 95208  1  0  0  0
 98209  1  0  0  0
 98210  1  0  0  0
 99211  1  0  0  0
100212  1  0  0  0
100213  1  0  0  0
100214  1  0  0  0
101215  1  0  0  0
101216  1  0  0  0
101217  1  0  0  0
102218  1  0  0  0
103219  1  0  0  0
105220  1  0  0  0
106221  1  0  0  0
106222  1  0  0  0
107223  1  0  0  0
107224  1  0  0  0
109225  1  0  0  0
M  END
$$$$
