### 
### Created by X-TOOL on Mon Sep 10 21:12:48 2018
### 

@<TRIPOS>MOLECULE
1k3n_ligand
  220   222     1     0     0
SMALL
GAST_HUCK


@<TRIPOS>ATOM
      1 N          -9.3640  -26.7210  -10.1300 N.4       1 LYS         0.2379
      2 CA         -9.8410  -26.0320  -11.3600 C.3       1 LYS         0.0650
      3 C          -8.8300  -26.1700  -12.4940 C.2       1 LYS         0.2267
      4 O          -7.6500  -26.4340  -12.2600 O.2       1 LYS        -0.3907
      5 CB        -10.0720  -24.5560  -11.0320 C.3       1 LYS         0.0080
      6 CG        -11.5040  -24.2390  -10.6340 C.3       1 LYS        -0.0410
      7 CD        -11.6110  -22.8710   -9.9810 C.3       1 LYS        -0.0123
      8 CE        -12.8730  -22.1440  -10.4140 C.3       1 LYS        -0.0354
      9 NZ        -12.7240  -20.6650  -10.3140 N.4       1 LYS         0.2185
     10 N          -9.3010  -25.9860  -13.7240 N.am      1 LYS        -0.2610
     11 CA         -8.4400  -26.0890  -14.8960 C.3       1 LYS         0.1311
     12 C          -8.9880  -25.2540  -16.0480 C.2       1 LYS         0.2039
     13 O         -10.0470  -25.5560  -16.5980 O.2       1 LYS        -0.3944
     14 CB         -8.3050  -27.5510  -15.3280 C.3       1 LYS        -0.0122
     15 CG         -7.0880  -28.2500  -14.7420 C.3       1 LYS        -0.0440
     16 CD         -6.1060  -28.6670  -15.8250 C.3       1 LYS        -0.0124
     17 CE         -4.6680  -28.3980  -15.4100 C.3       1 LYS        -0.0354
     18 NZ         -4.1360  -27.1520  -16.0250 N.4       1 LYS         0.2185
     19 N          -8.2610  -24.2010  -16.4090 N.am      1 MET        -0.2637
     20 CA         -8.6750  -23.3230  -17.4950 C.3       1 MET         0.1317
     21 C          -7.4620  -22.7720  -18.2420 C.2       1 MET         0.2040
     22 O          -6.3190  -23.0320  -17.8650 O.2       1 MET        -0.3944
     23 CB         -9.5220  -22.1700  -16.9520 C.3       1 MET        -0.0034
     24 CG        -10.7530  -21.8710  -17.7930 C.3       1 MET        -0.0024
     25 SD        -10.8940  -20.1260  -18.2310 S.3       1 MET        -0.1639
     26 CE        -12.3330  -19.6510  -17.2780 C.3       1 MET        -0.0181
     27 N          -7.7200  -22.0120  -19.3000 N.am      1 THR        -0.2613
     28 CA         -6.6490  -21.4250  -20.0990 C.3       1 THR         0.1565
     29 C          -6.3060  -20.0250  -19.6020 C.2       1 THR         0.2066
     30 O          -7.1690  -19.3040  -19.1020 O.2       1 THR        -0.3943
     31 CB         -7.0540  -21.3710  -21.5730 C.3       1 THR         0.0924
     32 OG1        -7.8560  -22.4870  -21.9140 O.3       1 THR        -0.3874
     33 CG2        -5.8710  -21.3500  -22.5170 C.3       1 THR        -0.0346
     34 N          -5.0400  -19.6460  -19.7450 N.am      1 PHE        -0.2619
     35 CA         -4.5820  -18.3310  -19.3110 C.3       1 PHE         0.1404
     36 C          -5.2310  -17.2280  -20.1410 C.2       1 PHE         0.2060
     37 O          -5.7720  -17.4830  -21.2170 O.2       1 PHE        -0.3942
     38 CB         -3.0600  -18.2370  -19.4170 C.3       1 PHE         0.0214
     39 CG         -2.5170  -18.7290  -20.7290 C.ar      1 PHE        -0.0386
     40 CD1        -2.8120  -18.0650  -21.9090 C.ar      1 PHE        -0.0601
     41 CD2        -1.7110  -19.8540  -20.7810 C.ar      1 PHE        -0.0601
     42 CE1        -2.3130  -18.5160  -23.1170 C.ar      1 PHE        -0.0686
     43 CE2        -1.2080  -20.3090  -21.9870 C.ar      1 PHE        -0.0686
     44 CZ         -1.5110  -19.6390  -23.1560 C.ar      1 PHE        -0.0687
     45 N          -5.1720  -16.0010  -19.6330 N.am      1 GLN        -0.2634
     46 CA         -5.7530  -14.8570  -20.3270 C.3       1 GLN         0.1330
     47 C          -4.6730  -14.0380  -21.0260 C.2       1 GLN         0.2041
     48 O          -4.6890  -13.8840  -22.2470 O.2       1 GLN        -0.3944
     49 CB         -6.5220  -13.9750  -19.3430 C.3       1 GLN         0.0045
     50 CG         -7.5290  -13.0530  -20.0120 C.3       1 GLN         0.0412
     51 CD         -8.7070  -12.7280  -19.1110 C.2       1 GLN         0.1737
     52 OE1        -8.9640  -11.5640  -18.8040 O.2       1 GLN        -0.3973
     53 NE2        -9.4280  -13.7570  -18.6870 N.am      1 GLN        -0.3009
     54 N          -3.7350  -13.5160  -20.2430 N.am      1 TPO        -0.2611
     55 CA         -2.6460  -12.7120  -20.7850 C.3       1 TPO         0.1614
     56 CB         -2.5180  -11.3680  -20.0390 C.3       1 TPO         0.1262
     57 CG2        -1.3630  -10.5440  -20.5890 C.3       1 TPO        -0.0298
     58 OG1        -3.7100  -10.6390  -20.1610 O.3       1 TPO        -0.2685
     59 P          -4.2150   -9.8440  -18.9170 P.3       1 TPO         0.2014
     60 O1P        -5.6020   -9.2940  -19.3390 O.co2     1 TPO        -0.5537
     61 O2P        -4.4080  -10.9170  -17.8160 O.co2     1 TPO        -0.5537
     62 O3P        -3.2660   -8.7570  -18.5030 O.co2     1 TPO        -0.5537
     63 C          -1.3200  -13.4650  -20.6960 C.2       1 TPO         0.2093
     64 O          -0.6500  -13.4370  -19.6630 O.2       1 TPO        -0.3941
     65 N          -0.9200  -14.1520  -21.7820 N.am      1 PRO        -0.2498
     66 CA          0.3350  -14.9130  -21.8140 C.3       1 PRO         0.1338
     67 C           1.5610  -14.0100  -21.7340 C.2       1 PRO         0.2042
     68 O           2.0820  -13.5610  -22.7560 O.2       1 PRO        -0.3944
     69 CB          0.2850  -15.6340  -23.1640 C.3       1 PRO        -0.0104
     70 CG         -0.6340  -14.8160  -24.0010 C.3       1 PRO        -0.0281
     71 CD         -1.6530  -14.2430  -23.0580 C.3       1 PRO         0.0369
     72 N           2.0210  -13.7500  -20.5150 N.am      1 THR        -0.2613
     73 CA          3.1870  -12.9020  -20.3010 C.3       1 THR         0.1565
     74 C           4.4770  -13.6870  -20.5140 C.2       1 THR         0.2066
     75 O           4.7080  -14.7080  -19.8670 O.2       1 THR        -0.3943
     76 CB          3.1640  -12.3130  -18.8900 C.3       1 THR         0.0924
     77 OG1         1.9390  -11.6440  -18.6460 O.3       1 THR        -0.3874
     78 CG2         4.2850  -11.3270  -18.6340 C.3       1 THR        -0.0346
     79 N           5.3160  -13.2030  -21.4250 N.am      1 ASP        -0.2621
     80 CA          6.5820  -13.8610  -21.7220 C.3       1 ASP         0.1425
     81 C           7.4650  -13.9300  -20.4750 C.2       1 ASP         0.2081
     82 O           7.7160  -12.9130  -19.8300 O.2       1 ASP        -0.3941
     83 CB          7.3160  -13.1150  -22.8390 C.3       1 ASP         0.0406
     84 CG          6.6530  -13.2980  -24.1890 C.2       1 ASP         0.0393
     85 OD1         6.2360  -14.4340  -24.4970 O.co2     1 ASP        -0.5688
     86 OD2         6.5500  -12.3040  -24.9390 O.co2     1 ASP        -0.5688
     87 N           7.9500  -15.1340  -20.1170 N.am      1 PRO        -0.2497
     88 CA          8.8050  -15.3160  -18.9390 C.3       1 PRO         0.1338
     89 C          10.0120  -14.3850  -18.9520 C.2       1 PRO         0.2041
     90 O          10.9520  -14.5830  -19.7220 O.2       1 PRO        -0.3944
     91 CB          9.2560  -16.7750  -19.0460 C.3       1 PRO        -0.0104
     92 CG          8.1980  -17.4430  -19.8560 C.3       1 PRO        -0.0281
     93 CD          7.7070  -16.4040  -20.8250 C.3       1 PRO         0.0369
     94 N           9.9800  -13.3710  -18.0940 N.am      1 LEU        -0.2637
     95 CA         11.0720  -12.4080  -18.0070 C.3       1 LEU         0.1312
     96 C          10.8610  -11.4480  -16.8410 C.2       1 LEU         0.2034
     97 O           9.8760  -11.5480  -16.1110 O.2       1 LEU        -0.3944
     98 CB         11.1910  -11.6220  -19.3140 C.3       1 LEU        -0.0101
     99 CG          9.9790  -10.7550  -19.6620 C.3       1 LEU        -0.0425
    100 CD1        10.1850   -9.3280  -19.1740 C.3       1 LEU        -0.0625
    101 CD2         9.7200  -10.7740  -21.1610 C.3       1 LEU        -0.0625
    102 N          11.7930  -10.5150  -16.6740 N.am      1 GLU        -0.2694
    103 CA         11.7080   -9.5350  -15.5970 C.3       1 GLU         0.0959
    104 C          12.2250   -8.1760  -16.0570 C.2       1 GLU         0.0602
    105 O          13.3560   -8.1210  -16.5850 O.co2     1 GLU        -0.5666
    106 CB         12.5060  -10.0130  -14.3810 C.3       1 GLU        -0.0064
    107 CG         11.6620  -10.7490  -13.3530 C.3       1 GLU         0.0038
    108 CD         11.2920   -9.8790  -12.1680 C.2       1 GLU         0.0350
    109 OE1        12.1680   -9.1260  -11.6880 O.co2     1 GLU        -0.5690
    110 OE2        10.1280   -9.9470  -11.7220 O.co2     1 GLU        -0.5690
    111 OXT        11.4940   -7.1780  -15.8860 O.co2     1 GLU        -0.5666
    112 H1        -10.0490  -26.6146   -9.3982 H         1 LYS         0.2015
    113 H2         -8.4905  -26.3142   -9.8343 H         1 LYS         0.2015
    114 H3         -9.2296  -27.7009  -10.3244 H         1 LYS         0.2015
    115 H4        -10.7916  -26.4845  -11.6786 H         1 LYS         0.1098
    116 H5         -9.8172  -23.9583  -11.9196 H         1 LYS         0.0346
    117 H6         -9.4096  -24.2768  -10.1994 H         1 LYS         0.0346
    118 H7        -11.8549  -25.0023   -9.9240 H         1 LYS         0.0270
    119 H8        -12.1371  -24.2561  -11.5334 H         1 LYS         0.0270
    120 H9        -10.7359  -22.2690  -10.2670 H         1 LYS         0.0317
    121 H10       -11.6282  -22.9969   -8.8884 H         1 LYS         0.0317
    122 H11       -13.7056  -22.4619   -9.7693 H         1 LYS         0.0813
    123 H12       -13.0958  -22.4092  -11.4580 H         1 LYS         0.0813
    124 H13       -13.5793  -20.2205  -10.6089 H         1 LYS         0.1994
    125 H14       -11.9666  -20.3628  -10.9065 H         1 LYS         0.1994
    126 H15       -12.5254  -20.4111   -9.3589 H         1 LYS         0.1994
    127 H16       -10.2698  -25.7717  -13.8481 H         1 LYS         0.1884
    128 H17        -7.4431  -25.7071  -14.6308 H         1 LYS         0.0800
    129 H18        -8.2300  -27.5838  -16.4249 H         1 LYS         0.0312
    130 H19        -9.2061  -28.0934  -15.0056 H         1 LYS         0.0312
    131 H20        -7.4192  -29.1459  -14.1965 H         1 LYS         0.0269
    132 H21        -6.5824  -27.5635  -14.0470 H         1 LYS         0.0269
    133 H22        -6.3246  -28.1009  -16.7424 H         1 LYS         0.0317
    134 H23        -6.2258  -29.7428  -16.0206 H         1 LYS         0.0317
    135 H24        -4.0423  -29.2456  -15.7262 H         1 LYS         0.0813
    136 H25        -4.6264  -28.2998  -14.3152 H         1 LYS         0.0813
    137 H26        -3.1839  -27.0098  -15.7261 H         1 LYS         0.1994
    138 H27        -4.6994  -26.3677  -15.7363 H         1 LYS         0.1994
    139 H28        -4.1642  -27.2344  -17.0292 H         1 LYS         0.1994
    140 H29        -7.4089  -24.0070  -15.9229 H         1 MET         0.1883
    141 H30        -9.2852  -23.9057  -18.2008 H         1 MET         0.0800
    142 H31        -8.8968  -21.2656  -16.9168 H         1 MET         0.0320
    143 H32        -9.8504  -22.4287  -15.9345 H         1 MET         0.0320
    144 H33       -11.6473  -22.1637  -17.2234 H         1 MET         0.0378
    145 H34       -10.6982  -22.4623  -18.7189 H         1 MET         0.0378
    146 H35       -12.5488  -18.5856  -17.4462 H         1 MET         0.0340
    147 H36       -12.1374  -19.8212  -16.2090 H         1 MET         0.0340
    148 H37       -13.1971  -20.2543  -17.5933 H         1 MET         0.0340
    149 H38        -8.6710  -21.8377  -19.5554 H         1 THR         0.1884
    150 H39        -5.7552  -22.0589  -20.0030 H         1 THR         0.0826
    151 H40        -7.6380  -20.4518  -21.7278 H         1 THR         0.0639
    152 H41        -8.0962  -22.4344  -22.8316 H         1 THR         0.2101
    153 H42        -6.2313  -21.3112  -23.5556 H         1 THR         0.0257
    154 H43        -5.2694  -22.2593  -22.3713 H         1 THR         0.0257
    155 H44        -5.2525  -20.4642  -22.3102 H         1 THR         0.0257
    156 H45        -4.3856  -20.2779  -20.1603 H         1 PHE         0.1885
    157 H46        -4.8702  -18.1919  -18.2586 H         1 PHE         0.0823
    158 H47        -2.6173  -18.8389  -18.6097 H         1 PHE         0.0474
    159 H48        -2.7670  -17.1841  -19.2923 H         1 PHE         0.0474
    160 H49        -3.4408  -17.1824  -21.8847 H         1 PHE         0.0557
    161 H50        -1.4714  -20.3842  -19.8664 H         1 PHE         0.0557
    162 H51        -2.5514  -17.9880  -24.0332 H         1 PHE         0.0599
    163 H52        -0.5770  -21.1900  -22.0142 H         1 PHE         0.0599
    164 H53        -1.1198  -19.9943  -24.1025 H         1 PHE         0.0559
    165 H54        -4.7181  -15.8587  -18.7534 H         1 GLN         0.1883
    166 H55        -6.4549  -15.2306  -21.0871 H         1 GLN         0.0801
    167 H56        -5.7985  -13.3575  -18.7904 H         1 GLN         0.0337
    168 H57        -7.0608  -14.6266  -18.6394 H         1 GLN         0.0337
    169 H58        -7.9055  -13.5427  -20.9222 H         1 GLN         0.0504
    170 H59        -7.0227  -12.1148  -20.2830 H         1 GLN         0.0504
    171 H60       -10.2161  -13.6035  -18.0909 H         1 GLN         0.1814
    172 H61        -9.1836  -14.6865  -18.9634 H         1 GLN         0.1814
    173 H62        -3.7770  -13.6786  -19.2572 H         1 TPO         0.1884
    174 H63        -2.8634  -12.5059  -21.8434 H         1 TPO         0.0830
    175 H64        -2.3310  -11.5728  -18.9745 H         1 TPO         0.0695
    176 H65        -1.2962   -9.5936  -20.0392 H         1 TPO         0.0260
    177 H66        -1.5342  -10.3391  -21.6561 H         1 TPO         0.0260
    178 H67        -0.4236  -11.1036  -20.4692 H         1 TPO         0.0260
    179 H68         0.3667  -15.6364  -20.9860 H         1 PRO         0.0802
    180 H69        -0.1068  -16.6547  -23.0434 H         1 PRO         0.0313
    181 H70         1.2863  -15.6768  -23.6173 H         1 PRO         0.0313
    182 H71        -1.1249  -15.4461  -24.7573 H         1 PRO         0.0287
    183 H72        -0.0790  -14.0084  -24.5007 H         1 PRO         0.0287
    184 H73        -1.9855  -13.2495  -23.3933 H         1 PRO         0.0524
    185 H74        -2.5234  -14.9093  -22.9659 H         1 PRO         0.0524
    186 H75         1.5552  -14.1464  -19.7238 H         1 THR         0.1884
    187 H76         3.1555  -12.0767  -21.0275 H         1 THR         0.0826
    188 H77         3.2641  -13.1446  -18.1770 H         1 THR         0.0639
    189 H78         1.2205  -12.2592  -18.7341 H         1 THR         0.2101
    190 H79         4.2088  -10.9441  -17.6056 H         1 THR         0.0257
    191 H80         4.2064  -10.4901  -19.3435 H         1 THR         0.0257
    192 H81         5.2538  -11.8307  -18.7669 H         1 THR         0.0257
    193 H82         5.0725  -12.3677  -21.9180 H         1 ASP         0.1884
    194 H83         6.3723  -14.8863  -22.0606 H         1 ASP         0.0819
    195 H84         8.3473  -13.4932  -22.8979 H         1 ASP         0.0478
    196 H85         7.3321  -12.0423  -22.5960 H         1 ASP         0.0478
    197 H86         8.2302  -15.1495  -18.0160 H         1 PRO         0.0802
    198 H87         9.3268  -17.2327  -18.0483 H         1 PRO         0.0313
    199 H88        10.2310  -16.8430  -19.5507 H         1 PRO         0.0313
    200 H89         7.3760  -17.7814  -19.2081 H         1 PRO         0.0287
    201 H90         8.6165  -18.3042  -20.3974 H         1 PRO         0.0287
    202 H91         8.2745  -16.4446  -21.7664 H         1 PRO         0.0524
    203 H92         6.6359  -16.5380  -21.0364 H         1 PRO         0.0524
    204 H93         9.1877  -13.2655  -17.4931 H         1 LEU         0.1883
    205 H94        12.0096  -12.9588  -17.8410 H         1 LEU         0.0800
    206 H95        11.3414  -12.3417  -20.1321 H         1 LEU         0.0315
    207 H96        12.0697  -10.9647  -19.2377 H         1 LEU         0.0315
    208 H97         9.0974  -11.1716  -19.1528 H         1 LEU         0.0298
    209 H98         9.3048   -8.7213  -19.4330 H         1 LEU         0.0232
    210 H99        11.0782   -8.9017  -19.6540 H         1 LEU         0.0232
    211 H100       10.3208   -9.3297  -18.0824 H         1 LEU         0.0232
    212 H101        9.5738  -11.8119  -21.4947 H         1 LEU         0.0232
    213 H102       10.5815  -10.3375  -21.6875 H         1 LEU         0.0232
    214 H103        8.8174  -10.1864  -21.3847 H         1 LEU         0.0232
    215 H104       12.5709  -10.4843  -17.3017 H         1 GLU         0.1875
    216 H105       10.6528   -9.4276  -15.3056 H         1 GLU         0.0727
    217 H106       12.9596   -9.1363  -13.8957 H         1 GLU         0.0323
    218 H107       13.2993  -10.6906  -14.7296 H         1 GLU         0.0323
    219 H108       12.2301  -11.6174  -12.9881 H         1 GLU         0.0432
    220 H109       10.7372  -11.0936  -13.8387 H         1 GLU         0.0432
@<TRIPOS>BOND
     1    1    2 1  
     2    2    3 1  
     3    2    5 1  
     4    3    4 2  
     5    3   10 am 
     6    5    6 1  
     7    6    7 1  
     8    7    8 1  
     9    8    9 1  
    10   10   11 1  
    11   11   12 1  
    12   11   14 1  
    13   12   13 2  
    14   12   19 am 
    15   14   15 1  
    16   15   16 1  
    17   16   17 1  
    18   17   18 1  
    19   19   20 1  
    20   20   21 1  
    21   20   23 1  
    22   21   22 2  
    23   21   27 am 
    24   23   24 1  
    25   24   25 1  
    26   25   26 1  
    27   27   28 1  
    28   28   29 1  
    29   28   31 1  
    30   29   30 2  
    31   29   34 am 
    32   31   32 1  
    33   31   33 1  
    34   34   35 1  
    35   35   36 1  
    36   35   38 1  
    37   36   37 2  
    38   36   45 am 
    39   38   39 1  
    40   39   40 ar 
    41   39   41 ar 
    42   40   42 ar 
    43   41   43 ar 
    44   42   44 ar 
    45   43   44 ar 
    46   45   46 1  
    47   46   47 1  
    48   46   49 1  
    49   47   48 2  
    50   47   54 am 
    51   49   50 1  
    52   50   51 1  
    53   51   52 2  
    54   51   53 am 
    55   54   55 1  
    56   55   56 1  
    57   55   63 1  
    58   56   57 1  
    59   56   58 1  
    60   58   59 1  
    61   59   60 ar 
    62   59   61 ar 
    63   59   62 ar 
    64   63   64 2  
    65   63   65 am 
    66   65   66 1  
    67   65   71 1  
    68   66   67 1  
    69   66   69 1  
    70   67   68 2  
    71   67   72 am 
    72   69   70 1  
    73   70   71 1  
    74   72   73 1  
    75   73   74 1  
    76   73   76 1  
    77   74   75 2  
    78   74   79 am 
    79   76   77 1  
    80   76   78 1  
    81   79   80 1  
    82   80   81 1  
    83   80   83 1  
    84   81   82 2  
    85   81   87 am 
    86   83   84 1  
    87   84   85 ar 
    88   84   86 ar 
    89   87   88 1  
    90   87   93 1  
    91   88   89 1  
    92   88   91 1  
    93   89   90 2  
    94   89   94 am 
    95   91   92 1  
    96   92   93 1  
    97   94   95 1  
    98   95   96 1  
    99   95   98 1  
   100   96   97 2  
   101   96  102 am 
   102   98   99 1  
   103   99  100 1  
   104   99  101 1  
   105  102  103 1  
   106  103  104 1  
   107  103  106 1  
   108  104  105 ar 
   109  104  111 ar 
   110  106  107 1  
   111  107  108 1  
   112  108  109 ar 
   113  108  110 ar 
   114    1  112 1  
   115    1  113 1  
   116    1  114 1  
   117    2  115 1  
   118    5  116 1  
   119    5  117 1  
   120    6  118 1  
   121    6  119 1  
   122    7  120 1  
   123    7  121 1  
   124    8  122 1  
   125    8  123 1  
   126    9  124 1  
   127    9  125 1  
   128    9  126 1  
   129   10  127 1  
   130   11  128 1  
   131   14  129 1  
   132   14  130 1  
   133   15  131 1  
   134   15  132 1  
   135   16  133 1  
   136   16  134 1  
   137   17  135 1  
   138   17  136 1  
   139   18  137 1  
   140   18  138 1  
   141   18  139 1  
   142   19  140 1  
   143   20  141 1  
   144   23  142 1  
   145   23  143 1  
   146   24  144 1  
   147   24  145 1  
   148   26  146 1  
   149   26  147 1  
   150   26  148 1  
   151   27  149 1  
   152   28  150 1  
   153   31  151 1  
   154   32  152 1  
   155   33  153 1  
   156   33  154 1  
   157   33  155 1  
   158   34  156 1  
   159   35  157 1  
   160   38  158 1  
   161   38  159 1  
   162   40  160 1  
   163   41  161 1  
   164   42  162 1  
   165   43  163 1  
   166   44  164 1  
   167   45  165 1  
   168   46  166 1  
   169   49  167 1  
   170   49  168 1  
   171   50  169 1  
   172   50  170 1  
   173   53  171 1  
   174   53  172 1  
   175   54  173 1  
   176   55  174 1  
   177   56  175 1  
   178   57  176 1  
   179   57  177 1  
   180   57  178 1  
   181   66  179 1  
   182   69  180 1  
   183   69  181 1  
   184   70  182 1  
   185   70  183 1  
   186   71  184 1  
   187   71  185 1  
   188   72  186 1  
   189   73  187 1  
   190   76  188 1  
   191   77  189 1  
   192   78  190 1  
   193   78  191 1  
   194   78  192 1  
   195   79  193 1  
   196   80  194 1  
   197   83  195 1  
   198   83  196 1  
   199   88  197 1  
   200   91  198 1  
   201   91  199 1  
   202   92  200 1  
   203   92  201 1  
   204   93  202 1  
   205   93  203 1  
   206   94  204 1  
   207   95  205 1  
   208   98  206 1  
   209   98  207 1  
   210   99  208 1  
   211  100  209 1  
   212  100  210 1  
   213  100  211 1  
   214  101  212 1  
   215  101  213 1  
   216  101  214 1  
   217  102  215 1  
   218  103  216 1  
   219  106  217 1  
   220  106  218 1  
   221  107  219 1  
   222  107  220 1  
@<TRIPOS>SUBSTRUCTURE
     1 LYS         1

