5f1r_ligand
  -I-interpret- 

 46 50  0  0  0  0  0  0  0  0999 V2000
    9.1310    4.6550   15.8280 O   0  0  0  0  0
    8.7220    5.6040   16.5530 C   0  0  0  0  0
    7.2130    5.6470   16.7570 C   0  0  0  0  0
    6.8960    6.2190   18.1340 C   0  0  0  0  0
    6.4210    3.7140   17.9860 C   0  0  0  0  0
    5.9090    2.4350   18.0910 C   0  0  0  0  0
    5.6330    1.8050   19.4730 C   0  0  0  0  0
    6.1360    0.4350   19.8950 C   0  0  0  0  0
    6.6760    1.6830   20.5710 C   0  0  0  0  0
    5.6420    1.7090   16.8650 C   0  0  0  0  0
    5.0830    0.3100   16.9650 C   0  0  0  0  0
    4.2360    0.0030   15.7140 C   0  0  0  0  0
    2.8810    0.2160   15.7350 C   0  0  0  0  0
    2.0970   -0.0580   14.6070 C   0  0  0  0  0
    2.6820   -0.5530   13.4400 C   0  0  0  0  0
    4.0760   -0.7800   13.3980 C   0  0  0  0  0
    4.6890   -1.2800   12.2310 C   0  0  0  0  0
    6.0660   -1.4970   12.2080 C   0  0  0  0  0
    6.8410   -1.2210   13.3370 C   0  0  0  0  0
    9.5250    6.4380   17.0560 O   0  0  0  0  0
    6.8350    4.8150   19.2760 S   0  0  0  0  0
    6.2490   -0.7270   14.4990 C   0  0  0  0  0
    4.8560   -0.4980   14.5460 C   0  0  0  0  0
    5.8920    2.2820   15.6750 C   0  0  0  0  0
    6.4150    3.5890   15.5320 C   0  0  0  0  0
    6.6520    4.1350   14.4670 O   0  0  0  0  0
    6.6670    4.2790   16.7240 N   0  0  0  0  0
    8.3819    4.1290   15.5387 H   0  0  0  0  0
    6.7780    6.2609   15.9684 H   0  0  0  0  0
    5.9465    6.7542   18.1240 H   0  0  0  0  0
    7.6556    6.9379   18.4412 H   0  0  0  0  0
    4.6533    2.2750   19.3868 H   0  0  0  0  0
    6.5190   -0.4738   19.4307 H   0  0  0  0  0
    5.7263   -0.5350   20.1769 H   0  0  0  0  0
    6.8477    2.0565   21.5805 H   0  0  0  0  0
    7.6402    2.1177   20.8344 H   0  0  0  0  0
    4.4580    0.2317   17.8546 H   0  0  0  0  0
    5.9033   -0.4046   17.0321 H   0  0  0  0  0
    2.4096    0.6024   16.6387 H   0  0  0  0  0
    1.0216    0.1166   14.6406 H   0  0  0  0  0
    2.0663   -0.7633   12.5655 H   0  0  0  0  0
    4.0874   -1.4965   11.3482 H   0  0  0  0  0
    6.5397   -1.8835   11.3056 H   0  0  0  0  0
    7.9170   -1.3931   13.3095 H   0  0  0  0  0
    6.8636   -0.5168   15.3743 H   0  0  0  0  0
    5.6806    1.7093   14.7720 H   0  0  0  0  0
  2  1  1  0  0  0
  3  2  1  0  0  0
  2 20  2  0  0  0
  4  3  1  0  0  0
  3 27  1  0  0  0
 21  4  1  0  0  0
  5  6  2  0  0  0
  5 21  1  0  0  0
  5 27  1  0  0  0
  6  7  1  0  0  0
  6 10  1  0  0  0
  7  8  1  0  0  0
  7  9  1  0  0  0
  8  9  1  0  0  0
 10 11  1  0  0  0
 10 24  2  0  0  0
 11 12  1  0  0  0
 12 13  4  0  0  0
 12 23  4  0  0  0
 13 14  4  0  0  0
 14 15  4  0  0  0
 15 16  4  0  0  0
 16 17  4  0  0  0
 16 23  4  0  0  0
 17 18  4  0  0  0
 18 19  4  0  0  0
 19 22  4  0  0  0
 22 23  4  0  0  0
 24 25  1  0  0  0
 25 26  2  0  0  0
 25 27  1  0  0  0
  1 28  1  0  0  0
  3 29  1  0  0  0
  4 30  1  0  0  0
  4 31  1  0  0  0
  7 32  1  0  0  0
  8 33  1  0  0  0
  8 34  1  0  0  0
  9 35  1  0  0  0
  9 36  1  0  0  0
 11 37  1  0  0  0
 11 38  1  0  0  0
 13 39  1  0  0  0
 14 40  1  0  0  0
 15 41  1  0  0  0
 17 42  1  0  0  0
 18 43  1  0  0  0
 19 44  1  0  0  0
 22 45  1  0  0  0
 24 46  1  0  0  0
M  END
$$$$
