### 
### Created by X-TOOL on Wed Jan  1 15:39:34 2020
### 

@<TRIPOS>MOLECULE
5n70_ligand
  147   148     1     0     0
SMALL
GAST_HUCK


@<TRIPOS>ATOM
      1 N          18.1820   24.5170   10.8730 N.4       1 ALA         0.2377
      2 CA         16.7670   24.8100   10.5030 C.3       1 ALA         0.0621
      3 C          16.2780   26.0690   11.1710 C.2       1 ALA         0.2265
      4 O          16.8100   26.4720   12.1980 O.2       1 ALA        -0.3907
      5 CB         15.8560   23.6250   10.8630 C.3       1 ALA        -0.0040
      6 N          15.2940   26.7230   10.5760 N.am      1 PHE        -0.2592
      7 CA         14.6900   27.8570   11.2030 C.3       1 PHE         0.1406
      8 C          13.2010   27.9400   10.9410 C.2       1 PHE         0.2060
      9 O          12.6690   27.6360    9.8610 O.2       1 PHE        -0.3942
     10 CB         15.4400   29.1790   10.9110 C.3       1 PHE         0.0214
     11 CG         15.8020   29.3590    9.4810 C.ar      1 PHE        -0.0386
     12 CD1        16.9150   28.7330    8.9620 C.ar      1 PHE        -0.0601
     13 CD2        15.0030   30.1150    8.6420 C.ar      1 PHE        -0.0601
     14 CE1        17.2430   28.8440    7.6280 C.ar      1 PHE        -0.0686
     15 CE2        15.3310   30.2580    7.2910 C.ar      1 PHE        -0.0686
     16 CZ         16.4540   29.6070    6.7790 C.ar      1 PHE        -0.0687
     17 N          12.5480   28.3860   11.9880 N.am      1 ARG        -0.2636
     18 CA         11.1230   28.2430   12.1940 C.3       1 ARG         0.1311
     19 C          10.5270   29.6310   12.0290 C.2       1 ARG         0.2039
     20 O          11.0130   30.5590   12.6370 O.2       1 ARG        -0.3944
     21 CB         10.9200   27.8160   13.6640 C.3       1 ARG        -0.0092
     22 CG         10.1070   26.5810   13.9200 C.3       1 ARG        -0.0156
     23 CD          9.5430   26.6050   15.3370 C.3       1 ARG         0.0627
     24 NE          8.1180   26.9470   15.3190 N.pl3     1 ARG        -0.2723
     25 CZ          7.5640   28.1490   15.5240 C.cat     1 ARG         0.2882
     26 NH1         8.2850   29.2380   15.8060 N.pl3     1 ARG        -0.2849
     27 NH2         6.2340   28.2480   15.4550 N.pl3     1 ARG        -0.2849
     28 N           9.4820   29.7680   11.2240 N.am      1 ILE        -0.2635
     29 CA          8.6400   30.9590   11.1940 C.3       1 ILE         0.1337
     30 C           7.2440   30.6400   11.6580 C.2       1 ILE         0.2067
     31 O           6.6180   29.7630   11.0830 O.2       1 ILE        -0.3942
     32 CB          8.5010   31.4910    9.7320 C.3       1 ILE        -0.0037
     33 CG1         9.8730   31.7190    9.1400 C.3       1 ILE        -0.0491
     34 CG2         7.6540   32.7420    9.6910 C.3       1 ILE        -0.0582
     35 CD1        10.7310   32.6710    9.9530 C.3       1 ILE        -0.0648
     36 N           6.7020   31.4150   12.6320 N.am      1 PRO        -0.2498
     37 CA          5.3140   31.2190   13.0020 C.3       1 PRO         0.1338
     38 C           4.3590   31.8570   12.0160 C.2       1 PRO         0.2041
     39 O           4.5690   32.9760   11.5720 O.2       1 PRO        -0.3944
     40 CB          5.1940   31.9210   14.3720 C.3       1 PRO        -0.0104
     41 CG          6.2200   33.0080   14.2840 C.3       1 PRO        -0.0281
     42 CD          7.3690   32.3670   13.5580 C.3       1 PRO         0.0369
     43 N           3.2820   31.1500   11.7350 N.am      1 LEU        -0.2637
     44 CA          2.2230   31.6280   10.8860 C.3       1 LEU         0.1312
     45 C           1.0360   32.0640   11.7200 C.2       1 LEU         0.2040
     46 O           0.7270   31.4770   12.7520 O.2       1 LEU        -0.3944
     47 CB          1.7730   30.5170    9.9140 C.3       1 LEU        -0.0101
     48 CG          2.8000   30.0710    8.8580 C.3       1 LEU        -0.0425
     49 CD1         2.2020   28.9510    8.0460 C.3       1 LEU        -0.0625
     50 CD2         3.1790   31.2080    7.9090 C.3       1 LEU        -0.0625
     51 N           0.3840   33.0940   11.2430 N.am      1 THR        -0.2613
     52 CA         -0.9060   33.5140   11.7310 C.3       1 THR         0.1564
     53 C          -1.9840   33.2050   10.7010 C.2       1 THR         0.2059
     54 O          -1.7960   33.4410    9.5120 O.2       1 THR        -0.3943
     55 CB         -0.8710   35.0110   11.9730 C.3       1 THR         0.0924
     56 OG1         0.1540   35.2840   12.9430 O.3       1 THR        -0.3874
     57 CG2        -2.2050   35.5010   12.5030 C.3       1 THR        -0.0346
     58 N          -3.1450   32.7190   11.1550 N.am      1 ARG        -0.2694
     59 CA         -4.2770   32.4810   10.2790 C.3       1 ARG         0.0945
     60 C          -5.1590   33.7350   10.1750 C.2       1 ARG         0.0601
     61 O          -5.7640   34.1060   11.1710 O.co2     1 ARG        -0.5666
     62 CB         -5.1140   31.2610   10.7570 C.3       1 ARG        -0.0148
     63 CG         -6.3230   31.0420    9.8670 C.3       1 ARG        -0.0162
     64 CD         -7.2160   29.8660   10.2570 C.3       1 ARG         0.0627
     65 NE         -8.4510   30.0020    9.4740 N.pl3     1 ARG        -0.2723
     66 CZ         -9.3420   29.0510    9.2200 C.cat     1 ARG         0.2882
     67 NH1        -9.2060   27.8180    9.7000 N.pl3     1 ARG        -0.2849
     68 NH2       -10.3950   29.3500    8.4700 N.pl3     1 ARG        -0.2849
     69 OXT        -5.3380   34.3670    9.1200 O.co2     1 ARG        -0.5666
     70 H1         18.4815   23.6716   10.4128 H         1 ALA         0.2015
     71 H2         18.2505   24.3982   11.8716 H         1 ALA         0.2015
     72 H3         18.7703   25.2830   10.5845 H         1 ALA         0.2015
     73 H4         16.7227   24.9604    9.4142 H         1 ALA         0.1095
     74 H5         14.8190   23.8613   10.5824 H         1 ALA         0.0310
     75 H6         15.9092   23.4372   11.9455 H         1 ALA         0.0310
     76 H7         16.1879   22.7287   10.3186 H         1 ALA         0.0310
     77 H8         14.9697   26.4214    9.6794 H         1 PHE         0.1886
     78 H9         14.7931   27.6909   12.2855 H         1 PHE         0.0823
     79 H10        16.3643   29.1925   11.5072 H         1 PHE         0.0474
     80 H11        14.7959   30.0176   11.2140 H         1 PHE         0.0474
     81 H12        17.5451   28.1414    9.6163 H         1 PHE         0.0557
     82 H13        14.1166   30.5997    9.0351 H         1 PHE         0.0557
     83 H14        18.1184   28.3347    7.2415 H         1 PHE         0.0599
     84 H15        14.7156   30.8721    6.6436 H         1 PHE         0.0599
     85 H16        16.7074   29.6964    5.7288 H         1 PHE         0.0559
     86 H17        13.0734   28.8592   12.6951 H         1 ARG         0.1883
     87 H18        10.6764   27.5202   11.4953 H         1 ARG         0.0800
     88 H19        10.4257   28.6497   14.1842 H         1 ARG         0.0313
     89 H20        11.9163   27.6509   14.0999 H         1 ARG         0.0313
     90 H21        10.7459   25.6939   13.7984 H         1 ARG         0.0301
     91 H22         9.2770   26.5367   13.1995 H         1 ARG         0.0301
     92 H23        10.0872   27.3547   15.9301 H         1 ARG         0.0689
     93 H24         9.6709   25.6126   15.7939 H         1 ARG         0.0689
     94 H25         7.4667   26.1727   15.1262 H         1 ARG         0.2642
     95 H26         7.8150   30.1422   15.9560 H         1 ARG         0.2615
     96 H27         9.3108   29.1733   15.8734 H         1 ARG         0.2615
     97 H28         5.6662   27.4164   15.2385 H         1 ARG         0.2615
     98 H29         5.7760   29.1560   15.6183 H         1 ARG         0.2615
     99 H30         9.2594   29.0150   10.6047 H         1 ILE         0.1883
    100 H31         9.0840   31.7325   11.8379 H         1 ILE         0.0803
    101 H32         7.9940   30.7212    9.1317 H         1 ILE         0.0345
    102 H33         9.7516   32.1361    8.1294 H         1 ILE         0.0267
    103 H34        10.3908   30.7505    9.0772 H         1 ILE         0.0267
    104 H35         6.6677   32.5315   10.1302 H         1 ILE         0.0235
    105 H36         7.5290   33.0662    8.6473 H         1 ILE         0.0235
    106 H37         8.1487   33.5388   10.2657 H         1 ILE         0.0235
    107 H38        11.7100   32.7893    9.4657 H         1 ILE         0.0230
    108 H39        10.8721   32.2641   10.9652 H         1 ILE         0.0230
    109 H40        10.2329   33.6496   10.0173 H         1 ILE         0.0230
    110 H41         5.0864   30.1462   13.0871 H         1 PRO         0.0802
    111 H42         5.4233   31.2265   15.1936 H         1 PRO         0.0313
    112 H43         4.1866   32.3388   14.5153 H         1 PRO         0.0313
    113 H44         6.5270   33.3378   15.2875 H         1 PRO         0.0287
    114 H45         5.8312   33.8676   13.7184 H         1 PRO         0.0287
    115 H46         7.9501   33.1166   13.0008 H         1 PRO         0.0524
    116 H47         8.0307   31.8367   14.2586 H         1 PRO         0.0524
    117 H48         3.1969   30.2360   12.1317 H         1 LEU         0.1883
    118 H49         2.5917   32.4871   10.3063 H         1 LEU         0.0800
    119 H50         0.8819   30.8800    9.3810 H         1 LEU         0.0315
    120 H51         1.5070   29.6348   10.5148 H         1 LEU         0.0315
    121 H52         3.7063   29.7146    9.3694 H         1 LEU         0.0298
    122 H53         2.9262   28.6218    7.2862 H         1 LEU         0.0232
    123 H54         1.2863   29.3058    7.5504 H         1 LEU         0.0232
    124 H55         1.9571   28.1079    8.7087 H         1 LEU         0.0232
    125 H56         3.6179   32.0357    8.4854 H         1 LEU         0.0232
    126 H57         2.2797   31.5629    7.3844 H         1 LEU         0.0232
    127 H58         3.9122   30.8435    7.1744 H         1 LEU         0.0232
    128 H59         0.8028   33.6172   10.5008 H         1 THR         0.1884
    129 H60        -1.1336   32.9892   12.6706 H         1 THR         0.0826
    130 H61        -0.6411   35.5304   11.0310 H         1 THR         0.0639
    131 H62         0.1913   36.2188   13.1081 H         1 THR         0.2101
    132 H63        -2.1563   36.5870   12.6708 H         1 THR         0.0257
    133 H64        -2.4314   34.9932   13.4521 H         1 THR         0.0257
    134 H65        -2.9948   35.2782   11.7705 H         1 THR         0.0257
    135 H66        -3.2355   32.5132   12.1294 H         1 ARG         0.1875
    136 H67        -3.8874   32.2534    9.2758 H         1 ARG         0.0726
    137 H68        -5.4549   31.4413   11.7872 H         1 ARG         0.0307
    138 H69        -4.4824   30.3607   10.7320 H         1 ARG         0.0307
    139 H70        -5.9636   30.8703    8.8417 H         1 ARG         0.0301
    140 H71        -6.9343   31.9561    9.8931 H         1 ARG         0.0301
    141 H72        -7.4425   29.9013   11.3328 H         1 ARG         0.0689
    142 H73        -6.7176   28.9149   10.0182 H         1 ARG         0.0689
    143 H74        -8.6466   30.9335    9.0803 H         1 ARG         0.2642
    144 H75        -9.9138   27.1010    9.4859 H         1 ARG         0.2615
    145 H76        -8.3929   27.5802   10.2858 H         1 ARG         0.2615
    146 H77       -10.5064   30.3029    8.0951 H         1 ARG         0.2615
    147 H78       -11.1010   28.6292    8.2627 H         1 ARG         0.2615
@<TRIPOS>BOND
     1    1    2 1  
     2    2    3 1  
     3    2    5 1  
     4    3    4 2  
     5    3    6 am 
     6    6    7 1  
     7    7    8 1  
     8    7   10 1  
     9    8    9 2  
    10    8   17 am 
    11   10   11 1  
    12   11   12 ar 
    13   11   13 ar 
    14   12   14 ar 
    15   13   15 ar 
    16   14   16 ar 
    17   15   16 ar 
    18   17   18 1  
    19   18   19 1  
    20   18   21 1  
    21   19   20 2  
    22   19   28 am 
    23   21   22 1  
    24   22   23 1  
    25   23   24 1  
    26   24   25 ar 
    27   25   26 ar 
    28   25   27 ar 
    29   28   29 1  
    30   29   30 1  
    31   29   32 1  
    32   30   31 2  
    33   30   36 am 
    34   32   33 1  
    35   32   34 1  
    36   33   35 1  
    37   36   37 1  
    38   36   42 1  
    39   37   38 1  
    40   37   40 1  
    41   38   39 2  
    42   38   43 am 
    43   40   41 1  
    44   41   42 1  
    45   43   44 1  
    46   44   45 1  
    47   44   47 1  
    48   45   46 2  
    49   45   51 am 
    50   47   48 1  
    51   48   49 1  
    52   48   50 1  
    53   51   52 1  
    54   52   53 1  
    55   52   55 1  
    56   53   54 2  
    57   53   58 am 
    58   55   56 1  
    59   55   57 1  
    60   58   59 1  
    61   59   60 1  
    62   59   62 1  
    63   60   61 ar 
    64   60   69 ar 
    65   62   63 1  
    66   63   64 1  
    67   64   65 1  
    68   65   66 ar 
    69   66   67 ar 
    70   66   68 ar 
    71    1   70 1  
    72    1   71 1  
    73    1   72 1  
    74    2   73 1  
    75    5   74 1  
    76    5   75 1  
    77    5   76 1  
    78    6   77 1  
    79    7   78 1  
    80   10   79 1  
    81   10   80 1  
    82   12   81 1  
    83   13   82 1  
    84   14   83 1  
    85   15   84 1  
    86   16   85 1  
    87   17   86 1  
    88   18   87 1  
    89   21   88 1  
    90   21   89 1  
    91   22   90 1  
    92   22   91 1  
    93   23   92 1  
    94   23   93 1  
    95   24   94 1  
    96   26   95 1  
    97   26   96 1  
    98   27   97 1  
    99   27   98 1  
   100   28   99 1  
   101   29  100 1  
   102   32  101 1  
   103   33  102 1  
   104   33  103 1  
   105   34  104 1  
   106   34  105 1  
   107   34  106 1  
   108   35  107 1  
   109   35  108 1  
   110   35  109 1  
   111   37  110 1  
   112   40  111 1  
   113   40  112 1  
   114   41  113 1  
   115   41  114 1  
   116   42  115 1  
   117   42  116 1  
   118   43  117 1  
   119   44  118 1  
   120   47  119 1  
   121   47  120 1  
   122   48  121 1  
   123   49  122 1  
   124   49  123 1  
   125   49  124 1  
   126   50  125 1  
   127   50  126 1  
   128   50  127 1  
   129   51  128 1  
   130   52  129 1  
   131   55  130 1  
   132   56  131 1  
   133   57  132 1  
   134   57  133 1  
   135   57  134 1  
   136   58  135 1  
   137   59  136 1  
   138   62  137 1  
   139   62  138 1  
   140   63  139 1  
   141   63  140 1  
   142   64  141 1  
   143   64  142 1  
   144   65  143 1  
   145   67  144 1  
   146   67  145 1  
   147   68  146 1  
   148   68  147 1  
@<TRIPOS>SUBSTRUCTURE
     1 ALA         1

