5n70_ligand
  -I-interpret- 

146147  0  0  0  0  0  0  0  0999 V2000
   18.1820   24.5170   10.8730 N   0  3  0  0  0
   16.7670   24.8100   10.5030 C   0  0  0  0  0
   16.2780   26.0690   11.1710 C   0  0  0  0  0
   16.8100   26.4720   12.1980 O   0  0  0  0  0
   15.8560   23.6250   10.8630 C   0  0  0  0  0
   15.2940   26.7230   10.5760 N   0  0  0  0  0
   14.6900   27.8570   11.2030 C   0  0  0  0  0
   13.2010   27.9400   10.9410 C   0  0  0  0  0
   12.6690   27.6360    9.8610 O   0  0  0  0  0
   15.4400   29.1790   10.9110 C   0  0  0  0  0
   15.8020   29.3590    9.4810 C   0  0  0  0  0
   16.9150   28.7330    8.9620 C   0  0  0  0  0
   15.0030   30.1150    8.6420 C   0  0  0  0  0
   17.2430   28.8440    7.6280 C   0  0  0  0  0
   15.3310   30.2580    7.2910 C   0  0  0  0  0
   16.4540   29.6070    6.7790 C   0  0  0  0  0
   12.5480   28.3860   11.9880 N   0  0  0  0  0
   11.1230   28.2430   12.1940 C   0  0  0  0  0
   10.5270   29.6310   12.0290 C   0  0  0  0  0
   11.0130   30.5590   12.6370 O   0  0  0  0  0
   10.9200   27.8160   13.6640 C   0  0  0  0  0
   10.1070   26.5810   13.9200 C   0  0  0  0  0
    9.5430   26.6050   15.3370 C   0  0  0  0  0
    8.1180   26.9470   15.3190 N   0  0  0  0  0
    7.5640   28.1490   15.5240 C   0  0  0  0  0
    8.2850   29.2380   15.8060 N   0  0  0  0  0
    6.2340   28.2480   15.4550 N   0  0  0  0  0
    9.4820   29.7680   11.2240 N   0  0  0  0  0
    8.6400   30.9590   11.1940 C   0  0  0  0  0
    7.2440   30.6400   11.6580 C   0  0  0  0  0
    6.6180   29.7630   11.0830 O   0  0  0  0  0
    8.5010   31.4910    9.7320 C   0  0  0  0  0
    9.8730   31.7190    9.1400 C   0  0  0  0  0
    7.6540   32.7420    9.6910 C   0  0  0  0  0
   10.7310   32.6710    9.9530 C   0  0  0  0  0
    6.7020   31.4150   12.6320 N   0  0  0  0  0
    5.3140   31.2190   13.0020 C   0  0  0  0  0
    4.3590   31.8570   12.0160 C   0  0  0  0  0
    4.5690   32.9760   11.5720 O   0  0  0  0  0
    5.1940   31.9210   14.3720 C   0  0  0  0  0
    6.2200   33.0080   14.2840 C   0  0  0  0  0
    7.3690   32.3670   13.5580 C   0  0  0  0  0
    3.2820   31.1500   11.7350 N   0  0  0  0  0
    2.2230   31.6280   10.8860 C   0  0  0  0  0
    1.0360   32.0640   11.7200 C   0  0  0  0  0
    0.7270   31.4770   12.7520 O   0  0  0  0  0
    1.7730   30.5170    9.9140 C   0  0  0  0  0
    2.8000   30.0710    8.8580 C   0  0  0  0  0
    2.2020   28.9510    8.0460 C   0  0  0  0  0
    3.1790   31.2080    7.9090 C   0  0  0  0  0
    0.3840   33.0940   11.2430 N   0  0  0  0  0
   -0.9060   33.5140   11.7310 C   0  0  0  0  0
   -1.9840   33.2050   10.7010 C   0  0  0  0  0
   -1.7960   33.4410    9.5120 O   0  0  0  0  0
   -0.8710   35.0110   11.9730 C   0  0  0  0  0
    0.1540   35.2840   12.9430 O   0  0  0  0  0
   -2.2050   35.5010   12.5030 C   0  0  0  0  0
   -3.1450   32.7190   11.1550 N   0  0  0  0  0
   -4.2770   32.4810   10.2790 C   0  0  0  0  0
   -5.1590   33.7350   10.1750 C   0  0  0  0  0
   -5.7640   34.1060   11.1710 O   0  0  0  0  0
   -5.1140   31.2610   10.7570 C   0  0  0  0  0
   -6.3230   31.0420    9.8670 C   0  0  0  0  0
   -7.2160   29.8660   10.2570 C   0  0  0  0  0
   -8.4510   30.0020    9.4740 N   0  0  0  0  0
   -9.3420   29.0510    9.2200 C   0  0  0  0  0
   -9.2060   27.8180    9.7000 N   0  0  0  0  0
  -10.3950   29.3500    8.4700 N   0  0  0  0  0
   -5.3380   34.3670    9.1200 O   0  0  0  0  0
   18.7687   25.3141   10.6264 H   0  0  0  0  0
   18.2415   24.3473   11.8770 H   0  0  0  0  0
   18.5000   23.6900   10.3677 H   0  0  0  0  0
   16.7302   24.9634    9.4245 H   0  0  0  0  0
   15.8608   23.4797   11.9433 H   0  0  0  0  0
   14.8402   23.8344   10.5278 H   0  0  0  0  0
   16.2234   22.7237   10.3723 H   0  0  0  0  0
   14.9632   26.4154    9.6615 H   0  0  0  0  0
   14.7924   27.7016   12.2770 H   0  0  0  0  0
   16.3685   29.1592   11.4816 H   0  0  0  0  0
   14.7742   29.9978   11.1836 H   0  0  0  0  0
   17.5485   28.1382    9.6199 H   0  0  0  0  0
   14.1117   30.6024    9.0372 H   0  0  0  0  0
   18.1232   28.3318    7.2394 H   0  0  0  0  0
   14.7121   30.8755    6.6400 H   0  0  0  0  0
   16.7088   29.6969    5.7230 H   0  0  0  0  0
   13.0840   28.8687   12.7092 H   0  0  0  0  0
   10.6726   27.5244   11.5093 H   0  0  0  0  0
   10.3705   28.6319   14.1336 H   0  0  0  0  0
   11.9168   27.5958   14.0461 H   0  0  0  0  0
   10.7444   25.7043   13.8048 H   0  0  0  0  0
    9.2821   26.5434   13.2085 H   0  0  0  0  0
   10.0791   27.3555   15.9180 H   0  0  0  0  0
    9.6637   25.6173   15.7820 H   0  0  0  0  0
    7.4730   26.1802   15.1281 H   0  0  0  0  0
    7.8188   30.1311   15.9656 H   0  0  0  0  0
    9.3016   29.1762   15.8617 H   0  0  0  0  0
    5.6710   27.4222   15.2511 H   0  0  0  0  0
    9.2549   29.0000   10.5924 H   0  0  0  0  0
    9.1107   31.6960   11.8447 H   0  0  0  0  0
    7.9897   30.7432    9.1258 H   0  0  0  0  0
    9.7353   32.1623    8.1538 H   0  0  0  0  0
   10.3839   30.7564    9.1155 H   0  0  0  0  0
    6.6601   32.5192   10.0792 H   0  0  0  0  0
    8.1196   33.5147   10.3027 H   0  0  0  0  0
    7.5735   33.0911    8.6616 H   0  0  0  0  0
   10.2363   33.6402   10.0160 H   0  0  0  0  0
   10.8700   32.2667   10.9557 H   0  0  0  0  0
   11.7008   32.7874    9.4691 H   0  0  0  0  0
    5.0537   30.1607   13.0222 H   0  0  0  0  0
    5.3654   31.2450   15.2097 H   0  0  0  0  0
    4.1910   32.3013   14.5655 H   0  0  0  0  0
    6.5096   33.3827   15.2658 H   0  0  0  0  0
    5.8439   33.8895   13.7648 H   0  0  0  0  0
    7.9919   33.0930   13.0355 H   0  0  0  0  0
    8.0687   31.8743   14.2331 H   0  0  0  0  0
    3.1952   30.2177   12.1396 H   0  0  0  0  0
    2.6004   32.4782   10.3179 H   0  0  0  0  0
    0.9279   30.9251    9.3596 H   0  0  0  0  0
    1.5730   29.6401   10.5297 H   0  0  0  0  0
    3.7011   29.7504    9.3807 H   0  0  0  0  0
    1.9598   28.1163    8.7038 H   0  0  0  0  0
    1.2948   29.3038    7.5555 H   0  0  0  0  0
    2.9204   28.6257    7.2936 H   0  0  0  0  0
    2.2871   31.5585    7.3896 H   0  0  0  0  0
    3.6134   32.0277    8.4813 H   0  0  0  0  0
    3.9057   30.8457    7.1819 H   0  0  0  0  0
    0.8112   33.6277   10.4860 H   0  0  0  0  0
   -1.1326   32.9819   12.6549 H   0  0  0  0  0
   -0.6653   35.5255   11.0343 H   0  0  0  0  0
    0.1917   36.2286   13.1099 H   0  0  0  0  0
   -2.9867   35.2796   11.7763 H   0  0  0  0  0
   -2.4281   34.9971   13.4434 H   0  0  0  0  0
   -2.1555   36.5772   12.6688 H   0  0  0  0  0
   -3.2373   32.5091   12.1489 H   0  0  0  0  0
   -3.8866   32.2513    9.2876 H   0  0  0  0  0
   -5.4600   31.4531   11.7726 H   0  0  0  0  0
   -4.4861   30.3709   10.7159 H   0  0  0  0  0
   -5.9411   30.8264    8.8691 H   0  0  0  0  0
   -6.9362   31.9396    9.9471 H   0  0  0  0  0
   -7.4288   29.8755   11.3260 H   0  0  0  0  0
   -6.7239   28.9162   10.0475 H   0  0  0  0  0
   -8.6447   30.9244    9.0842 H   0  0  0  0  0
   -9.9088   27.1089    9.4909 H   0  0  0  0  0
   -8.3989   27.5815   10.2772 H   0  0  0  0  0
  -10.5071   30.2945    8.1016 H   0  0  0  0  0
   -4.8090   33.9763    8.4206 H   0  0  0  0  0
  1  2  1  0  0  0
  2  3  1  0  0  0
  2  5  1  0  0  0
  3  4  2  0  0  0
  3  6  1  0  0  0
  6  7  1  0  0  0
  7  8  1  0  0  0
  7 10  1  0  0  0
  8  9  2  0  0  0
  8 17  1  0  0  0
 10 11  1  0  0  0
 11 12  4  0  0  0
 11 13  4  0  0  0
 12 14  4  0  0  0
 13 15  4  0  0  0
 14 16  4  0  0  0
 15 16  4  0  0  0
 17 18  1  0  0  0
 18 19  1  0  0  0
 18 21  1  0  0  0
 19 20  2  0  0  0
 19 28  1  0  0  0
 21 22  1  0  0  0
 22 23  1  0  0  0
 23 24  1  0  0  0
 24 25  1  0  0  0
 25 26  1  0  0  0
 25 27  2  0  0  0
 28 29  1  0  0  0
 29 30  1  0  0  0
 29 32  1  0  0  0
 30 31  2  0  0  0
 30 36  1  0  0  0
 32 33  1  0  0  0
 32 34  1  0  0  0
 33 35  1  0  0  0
 36 37  1  0  0  0
 36 42  1  0  0  0
 37 38  1  0  0  0
 37 40  1  0  0  0
 38 39  2  0  0  0
 38 43  1  0  0  0
 40 41  1  0  0  0
 41 42  1  0  0  0
 43 44  1  0  0  0
 44 45  1  0  0  0
 44 47  1  0  0  0
 45 46  2  0  0  0
 45 51  1  0  0  0
 47 48  1  0  0  0
 48 49  1  0  0  0
 48 50  1  0  0  0
 51 52  1  0  0  0
 52 53  1  0  0  0
 52 55  1  0  0  0
 53 54  2  0  0  0
 53 58  1  0  0  0
 55 56  1  0  0  0
 55 57  1  0  0  0
 58 59  1  0  0  0
 59 60  1  0  0  0
 59 62  1  0  0  0
 60 61  2  0  0  0
 60 69  1  0  0  0
 62 63  1  0  0  0
 63 64  1  0  0  0
 64 65  1  0  0  0
 65 66  1  0  0  0
 66 67  1  0  0  0
 66 68  2  0  0  0
  1 70  1  0  0  0
  1 71  1  0  0  0
  1 72  1  0  0  0
  2 73  1  0  0  0
  5 74  1  0  0  0
  5 75  1  0  0  0
  5 76  1  0  0  0
  6 77  1  0  0  0
  7 78  1  0  0  0
 10 79  1  0  0  0
 10 80  1  0  0  0
 12 81  1  0  0  0
 13 82  1  0  0  0
 14 83  1  0  0  0
 15 84  1  0  0  0
 16 85  1  0  0  0
 17 86  1  0  0  0
 18 87  1  0  0  0
 21 88  1  0  0  0
 21 89  1  0  0  0
 22 90  1  0  0  0
 22 91  1  0  0  0
 23 92  1  0  0  0
 23 93  1  0  0  0
 24 94  1  0  0  0
 26 95  1  0  0  0
 26 96  1  0  0  0
 27 97  1  0  0  0
 28 98  1  0  0  0
 29 99  1  0  0  0
 32100  1  0  0  0
 33101  1  0  0  0
 33102  1  0  0  0
 34103  1  0  0  0
 34104  1  0  0  0
 34105  1  0  0  0
 35106  1  0  0  0
 35107  1  0  0  0
 35108  1  0  0  0
 37109  1  0  0  0
 40110  1  0  0  0
 40111  1  0  0  0
 41112  1  0  0  0
 41113  1  0  0  0
 42114  1  0  0  0
 42115  1  0  0  0
 43116  1  0  0  0
 44117  1  0  0  0
 47118  1  0  0  0
 47119  1  0  0  0
 48120  1  0  0  0
 49121  1  0  0  0
 49122  1  0  0  0
 49123  1  0  0  0
 50124  1  0  0  0
 50125  1  0  0  0
 50126  1  0  0  0
 51127  1  0  0  0
 52128  1  0  0  0
 55129  1  0  0  0
 56130  1  0  0  0
 57131  1  0  0  0
 57132  1  0  0  0
 57133  1  0  0  0
 58134  1  0  0  0
 59135  1  0  0  0
 62136  1  0  0  0
 62137  1  0  0  0
 63138  1  0  0  0
 63139  1  0  0  0
 64140  1  0  0  0
 64141  1  0  0  0
 65142  1  0  0  0
 67143  1  0  0  0
 67144  1  0  0  0
 68145  1  0  0  0
 69146  1  0  0  0
M  END
$$$$
