5d1n_ligand
  -I-interpret- 

 47 49  0  0  0  0  0  0  0  0999 V2000
   -4.9410   -8.4950   18.3620 N   0  3  0  0  0
   -5.7700   -8.3150   19.5490 C   0  0  0  0  0
   -5.8110   -6.8490   19.9660 C   0  0  0  0  0
   -5.9430   -5.8500   18.8230 C   0  0  0  0  0
   -6.0690   -4.1440   19.4170 S   0  0  0  0  0
   -7.1820   -8.8530   19.3380 C   0  0  0  0  0
   -7.5790   -9.1710   18.2170 O   0  0  0  0  0
   -7.9570   -8.9830   20.2860 O   0  0  0  0  0
   -4.5860   -3.6750   18.4870 C   0  0  0  0  0
   -3.4560   -3.2410   19.4120 C   0  0  0  0  0
   -2.2690   -2.9490   18.6970 O   0  0  0  0  0
   -3.8080   -1.9770   20.1830 C   0  0  0  0  0
   -4.1630   -2.2990   21.5070 O   0  0  0  0  0
   -2.5420   -1.1430   20.1640 C   0  0  0  0  0
   -2.1200   -0.8530   21.4760 O   0  0  0  0  0
   -1.5200   -2.0260   19.4650 C   0  0  0  0  0
   -0.5840   -1.2150   18.6640 N   0  0  0  0  0
   -0.8660   -0.0500   17.9990 C   0  0  0  0  0
    0.2670    0.3860   17.4000 N   0  0  0  0  0
    1.2670   -0.4790   17.6780 C   0  0  0  0  0
    2.6100   -0.5090   17.3200 C   0  0  0  0  0
    3.1210    0.4530   16.5560 N   0  0  0  0  0
    3.4120   -1.5410   17.7610 N   0  0  0  0  0
    2.8760   -2.5370   18.5530 C   0  0  0  0  0
    1.5400   -2.5010   18.9020 N   0  0  0  0  0
    0.7470   -1.4890   18.4750 C   0  0  0  0  0
   -4.0077   -8.1244   18.5411 H   0  0  0  0  0
   -4.8769   -9.4887   18.1410 H   0  0  0  0  0
   -5.3608   -7.9973   17.5769 H   0  0  0  0  0
   -5.3141   -8.8912   20.3541 H   0  0  0  0  0
   -4.8611   -6.6376   20.4570 H   0  0  0  0  0
   -6.6958   -6.7270   20.5908 H   0  0  0  0  0
   -6.8528   -6.0849   18.2706 H   0  0  0  0  0
   -5.0518   -5.9274   18.2002 H   0  0  0  0  0
   -7.5225   -8.7005   21.0941 H   0  0  0  0  0
   -4.8386   -2.8377   17.8365 H   0  0  0  0  0
   -4.2499   -4.5407   17.9164 H   0  0  0  0  0
   -3.3052   -4.0818   20.0891 H   0  0  0  0  0
   -4.6544   -1.4477   19.7452 H   0  0  0  0  0
   -4.3827   -1.4947   21.9828 H   0  0  0  0  0
   -2.6835   -0.1856   19.6625 H   0  0  0  0  0
   -1.3187   -0.3253   21.4439 H   0  0  0  0  0
   -0.8836   -2.5632   20.1682 H   0  0  0  0  0
   -1.8378    0.4420   17.9592 H   0  0  0  0  0
    2.5269    1.2158   16.2310 H   0  0  0  0  0
    4.1068    0.4277   16.2953 H   0  0  0  0  0
    3.5081   -3.3529   18.9034 H   0  0  0  0  0
  1  2  1  0  0  0
  2  3  1  0  0  0
  2  6  1  0  0  0
  3  4  1  0  0  0
  4  5  1  0  0  0
  5  9  1  0  0  0
  6  7  2  0  0  0
  6  8  1  0  0  0
  9 10  1  0  0  0
 10 11  1  0  0  0
 10 12  1  0  0  0
 11 16  1  0  0  0
 12 13  1  0  0  0
 12 14  1  0  0  0
 14 15  1  0  0  0
 14 16  1  0  0  0
 16 17  1  0  0  0
 17 18  4  0  0  0
 17 26  4  0  0  0
 18 19  4  0  0  0
 19 20  4  0  0  0
 20 21  4  0  0  0
 20 26  4  0  0  0
 21 22  1  0  0  0
 21 23  4  0  0  0
 23 24  4  0  0  0
 24 25  4  0  0  0
 25 26  4  0  0  0
  1 27  1  0  0  0
  1 28  1  0  0  0
  1 29  1  0  0  0
  2 30  1  0  0  0
  3 31  1  0  0  0
  3 32  1  0  0  0
  4 33  1  0  0  0
  4 34  1  0  0  0
  8 35  1  0  0  0
  9 36  1  0  0  0
  9 37  1  0  0  0
 10 38  1  0  0  0
 12 39  1  0  0  0
 13 40  1  0  0  0
 14 41  1  0  0  0
 15 42  1  0  0  0
 16 43  1  0  0  0
 18 44  1  0  0  0
 22 45  1  0  0  0
 22 46  1  0  0  0
 24 47  1  0  0  0
M  END
$$$$
