3dpd_ligand
  -I-interpret- 

 36 38  0  0  0  0  0  0  0  0999 V2000
   24.1900   63.5150   17.3780 C   0  0  0  0  0
   24.1550   63.1820   18.8730 C   0  0  0  0  0
   24.5710   64.4310   19.6530 C   0  0  0  0  0
   22.6950   62.7410   19.2510 C   0  0  0  0  0
   22.5850   61.9090   20.5080 C   0  0  0  0  0
   23.6610   61.2170   21.0160 C   0  0  0  0  0
   24.9960   61.2130   20.4380 C   0  0  0  0  0
   25.1700   62.0270   19.1610 C   0  0  0  0  0
   25.9150   60.5800   20.9300 O   0  0  0  0  0
   23.2060   60.3710   22.4610 S   0  0  0  0  0
   21.5800   61.0030   22.2570 C   0  0  0  0  0
   20.5900   60.6840   23.1420 N   0  0  0  0  0
   20.4760   59.2650   23.4940 C   0  0  0  0  0
   19.3790   59.0630   24.5280 C   0  0  0  0  0
   18.1390   59.6190   24.1170 O   0  0  0  0  0
   18.2640   61.0130   23.8510 C   0  0  0  0  0
   19.2750   61.2880   22.7640 C   0  0  0  0  0
   21.4160   61.7760   21.2090 N   0  0  0  0  0
   25.1957   63.8309   17.1009 H   0  0  0  0  0
   23.9143   62.6306   16.8035 H   0  0  0  0  0
   23.4847   64.3196   17.1697 H   0  0  0  0  0
   24.5752   64.2070   20.7197 H   0  0  0  0  0
   25.5695   64.7370   19.3408 H   0  0  0  0  0
   23.8636   65.2356   19.4522 H   0  0  0  0  0
   22.3307   62.1223   18.4309 H   0  0  0  0  0
   22.1259   63.6538   19.4268 H   0  0  0  0  0
   26.1389   62.5159   19.2627 H   0  0  0  0  0
   25.0328   61.3154   18.3468 H   0  0  0  0  0
   21.4241   58.9248   23.9105 H   0  0  0  0  0
   20.2293   58.6952   22.5981 H   0  0  0  0  0
   19.6851   59.5635   25.4467 H   0  0  0  0  0
   19.2388   57.9909   24.6659 H   0  0  0  0  0
   18.5987   61.5071   24.7631 H   0  0  0  0  0
   17.2950   61.3869   23.5202 H   0  0  0  0  0
   18.9298   60.8501   21.8274 H   0  0  0  0  0
   19.3918   62.3646   22.6403 H   0  0  0  0  0
  1  2  1  0  0  0
  2  3  1  0  0  0
  2  4  1  0  0  0
  2  8  1  0  0  0
  4  5  1  0  0  0
  5  6  4  0  0  0
  5 18  4  0  0  0
  6  7  1  0  0  0
  6 10  4  0  0  0
  7  8  1  0  0  0
  7  9  2  0  0  0
 10 11  4  0  0  0
 11 12  1  0  0  0
 11 18  4  0  0  0
 12 13  1  0  0  0
 12 17  1  0  0  0
 13 14  1  0  0  0
 14 15  1  0  0  0
 15 16  1  0  0  0
 16 17  1  0  0  0
  1 19  1  0  0  0
  1 20  1  0  0  0
  1 21  1  0  0  0
  3 22  1  0  0  0
  3 23  1  0  0  0
  3 24  1  0  0  0
  4 25  1  0  0  0
  4 26  1  0  0  0
  8 27  1  0  0  0
  8 28  1  0  0  0
 13 29  1  0  0  0
 13 30  1  0  0  0
 14 31  1  0  0  0
 14 32  1  0  0  0
 16 33  1  0  0  0
 16 34  1  0  0  0
 17 35  1  0  0  0
 17 36  1  0  0  0
M  END
$$$$
