1h6e_ligand
  -I-interpret- 

159161  0  0  0  0  0  0  0  0999 V2000
   64.4000    7.4190   10.5870 N   0  3  0  0  0
   63.9000    6.8040    9.3200 C   0  0  0  0  0
   63.2900    7.8590    8.4080 C   0  0  0  0  0
   62.4780    8.6680    8.8510 O   0  0  0  0  0
   62.8060    5.7260    9.5910 C   0  0  0  0  0
   61.5630    6.3530    9.9410 O   0  0  0  0  0
   63.2370    4.8000   10.7210 C   0  0  0  0  0
   63.6810    7.8680    7.1400 N   0  0  0  0  0
   63.1140    8.8320    6.2120 C   0  0  0  0  0
   63.0050    8.2620    4.8160 C   0  0  0  0  0
   62.1560    8.6880    4.0310 O   0  0  0  0  0
   63.9220   10.1470    6.1760 C   0  0  0  0  0
   63.4390   11.0200    7.2020 O   0  0  0  0  0
   63.7720   10.8480    4.8300 C   0  0  0  0  0
   63.8560    7.2960    4.5010 N   0  0  0  0  0
   63.8040    6.6940    3.1830 C   0  0  0  0  0
   63.4120    5.2450    3.3240 C   0  0  0  0  0
   62.9750    4.6030    2.3650 O   0  0  0  0  0
   63.5720    4.7390    4.5400 N   0  0  0  0  0
   63.2440    3.3630    4.8550 C   0  0  0  0  0
   61.8160    3.1040    4.4350 C   0  0  0  0  0
   60.9380    3.9210    4.6940 O   0  0  0  0  0
   63.3540    3.1030    6.3650 C   0  0  0  0  0
   62.3400    3.9600    7.1020 C   0  0  0  0  0
   63.1220    1.6270    6.6730 C   0  0  0  0  0
   61.5970    1.9750    3.7770 N   0  0  0  0  0
   60.2710    1.5950    3.3380 C   0  0  0  0  0
   59.5910    0.8650    4.4800 C   0  0  0  0  0
   60.2130    0.5870    5.5000 O   0  0  0  0  0
   60.3650    0.6680    2.1320 C   0  0  0  0  0
   60.4710    1.3760    0.8050 C   0  0  0  0  0
   59.3740    2.0390    0.2520 C   0  0  0  0  0
   61.6640    1.3800    0.0960 C   0  0  0  0  0
   59.4690    2.6850   -0.9750 C   0  0  0  0  0
   61.7700    2.0260   -1.1290 C   0  0  0  0  0
   60.6730    2.6740   -1.6570 C   0  0  0  0  0
   60.7980    3.3220   -2.8610 O   0  0  0  0  0
   58.3050    0.5770    4.3140 N   0  0  0  0  0
   57.5550   -0.1610    5.3180 C   0  0  0  0  0
   56.4770   -1.0010    4.6470 C   0  0  0  0  0
   55.8200   -0.5590    3.7000 O   0  0  0  0  0
   56.8960    0.7550    6.3560 C   0  0  0  0  0
   56.1540   -0.0880    7.3760 C   0  0  0  0  0
   57.9400    1.5650    7.0610 C   0  0  0  0  0
   56.3150   -2.2190    5.1530 N   0  0  0  0  0
   55.3480   -3.1760    4.6360 C   0  0  0  0  0
   53.9390   -2.6360    4.8000 C   0  0  0  0  0
   53.6010   -2.0660    5.8410 O   0  0  0  0  0
   55.4590   -4.5100    5.3840 C   0  0  0  0  0
   56.8150   -4.7810    6.0250 C   0  0  0  0  0
   57.1010   -3.8260    7.1980 C   0  0  0  0  0
   58.5080   -4.0280    7.7690 C   0  0  0  0  0
   58.9490   -2.9010    8.6460 N   0  3  0  0  0
   53.1220   -2.8100    3.7650 N   0  0  0  0  0
   51.7420   -2.3560    3.8110 C   0  0  0  0  0
   50.9580   -3.3730    4.6100 C   0  0  0  0  0
   51.3640   -4.5340    4.7190 O   0  0  0  0  0
   51.1550   -2.2480    2.4100 C   0  0  0  0  0
   51.7890   -1.1680    1.5730 C   0  0  0  0  0
   50.9120   -0.9100    0.0360 S   0  0  0  0  0
   49.4320   -0.1970    0.6550 C   0  0  0  0  0
   49.8300   -2.9460    5.1960 N   0  0  0  0  0
   48.9620   -3.8100    6.0060 C   0  0  0  0  0
   47.6720   -4.3250    5.3390 C   0  0  0  0  0
   46.5710   -4.0460    5.8200 O   0  0  0  0  0
   48.6610   -2.9280    7.2030 C   0  0  0  0  0
   48.4850   -1.5860    6.5410 C   0  0  0  0  0
   49.6160   -1.5240    5.5300 C   0  0  0  0  0
   47.7930   -5.0870    4.2300 N   0  0  0  0  0
   46.6350   -5.6380    3.5110 C   0  0  0  0  0
   45.7660   -6.5470    4.3860 C   0  0  0  0  0
   44.5370   -6.6410    4.1230 O   0  0  0  0  0
   47.2800   -6.3990    2.3530 C   0  0  0  0  0
   48.5080   -5.5990    2.0790 C   0  0  0  0  0
   49.0300   -5.3600    3.4770 C   0  0  0  0  0
   46.3430   -7.1710    5.3090 O   0  0  0  0  0
   65.1114    8.1162   10.3675 H   0  0  0  0  0
   63.6242    7.8655   11.0761 H   0  0  0  0  0
   64.8044    6.6936   11.1791 H   0  0  0  0  0
   64.7637    6.3389    8.8448 H   0  0  0  0  0
   62.6730    5.1425    8.6800 H   0  0  0  0  0
   61.2893    6.9372    9.2301 H   0  0  0  0  0
   63.3641    5.3795   11.6354 H   0  0  0  0  0
   62.4734    4.0377   10.8756 H   0  0  0  0  0
   64.1808    4.3225   10.4578 H   0  0  0  0  0
   64.3793    7.1985    6.8167 H   0  0  0  0  0
   62.1124    9.0565    6.5788 H   0  0  0  0  0
   64.9740    9.9080    6.3321 H   0  0  0  0  0
   63.9382   11.8398    7.1842 H   0  0  0  0  0
   64.1358   10.1932    4.0382 H   0  0  0  0  0
   62.7209   11.0795    4.6575 H   0  0  0  0  0
   64.3524   11.7706    4.8356 H   0  0  0  0  0
   64.5445    6.9775    5.1828 H   0  0  0  0  0
   64.7811    6.7669    2.7055 H   0  0  0  0  0
   63.0712    7.2161    2.5678 H   0  0  0  0  0
   63.9386    5.3393    5.2787 H   0  0  0  0  0
   63.9400    2.7083    4.3306 H   0  0  0  0  0
   64.3579    3.3664    6.6980 H   0  0  0  0  0
   62.5392    5.0122    6.8986 H   0  0  0  0  0
   61.3361    3.7065    6.7614 H   0  0  0  0  0
   62.4194    3.7743    8.1731 H   0  0  0  0  0
   62.1263    1.3389    6.3357 H   0  0  0  0  0
   63.8702    1.0271    6.1550 H   0  0  0  0  0
   63.2042    1.4641    7.7476 H   0  0  0  0  0
   62.3832    1.3576    3.5745 H   0  0  0  0  0
   59.7038    2.4814    3.0540 H   0  0  0  0  0
   59.4463    0.0819    2.1081 H   0  0  0  0  0
   61.2743    0.0792    2.2527 H   0  0  0  0  0
   58.4270    2.0503    0.7916 H   0  0  0  0  0
   62.5332    0.8671    0.5078 H   0  0  0  0  0
   58.6030    3.1956   -1.3962 H   0  0  0  0  0
   62.7159    2.0208   -1.6706 H   0  0  0  0  0
   61.6929    3.2123   -3.1907 H   0  0  0  0  0
   57.8325    0.8805    3.4625 H   0  0  0  0  0
   58.2702   -0.7968    5.8399 H   0  0  0  0  0
   56.2004    1.4227    5.8477 H   0  0  0  0  0
   55.3877   -0.6762    6.8710 H   0  0  0  0  0
   56.8570   -0.7557    7.8740 H   0  0  0  0  0
   55.6860    0.5644    8.1132 H   0  0  0  0  0
   58.6385    0.8963    7.5641 H   0  0  0  0  0
   58.4776    2.1741    6.3343 H   0  0  0  0  0
   57.4611    2.2120    7.7959 H   0  0  0  0  0
   56.8973   -2.4970    5.9430 H   0  0  0  0  0
   55.5608   -3.3353    3.5789 H   0  0  0  0  0
   55.2971   -5.2971    4.6476 H   0  0  0  0  0
   54.7300   -4.4773    6.1937 H   0  0  0  0  0
   57.5852   -4.6311    5.2684 H   0  0  0  0  0
   56.8120   -5.8010    6.4094 H   0  0  0  0  0
   56.3788   -4.0298    7.9886 H   0  0  0  0  0
   57.0245   -2.8022    6.8317 H   0  0  0  0  0
   59.2016   -4.0874    6.9303 H   0  0  0  0  0
   58.4939   -4.9343    8.3744 H   0  0  0  0  0
   59.8884   -3.0909    8.9950 H   0  0  0  0  0
   58.9536   -2.0346    8.1077 H   0  0  0  0  0
   58.3048   -2.8111    9.4317 H   0  0  0  0  0
   53.4701   -3.2703    2.9239 H   0  0  0  0  0
   51.6927   -1.3680    4.2687 H   0  0  0  0  0
   50.0985   -2.0018    2.5161 H   0  0  0  0  0
   51.3326   -3.1984    1.9068 H   0  0  0  0  0
   52.8081   -1.4740    1.3367 H   0  0  0  0  0
   51.7632   -0.2377    2.1404 H   0  0  0  0  0
   48.9470   -0.9002    1.3321 H   0  0  0  0  0
   49.6695    0.7214    1.1919 H   0  0  0  0  0
   48.7638    0.0289   -0.1760 H   0  0  0  0  0
   49.4633   -4.7524    6.2265 H   0  0  0  0  0
   49.4394   -2.9426    7.9659 H   0  0  0  0  0
   47.7937   -3.2506    7.7791 H   0  0  0  0  0
   48.5245   -0.7642    7.2560 H   0  0  0  0  0
   47.5062   -1.4814    6.0729 H   0  0  0  0  0
   49.3754   -0.9140    4.6593 H   0  0  0  0  0
   50.5105   -1.0396    5.9215 H   0  0  0  0  0
   45.9408   -4.8638    3.1841 H   0  0  0  0  0
   44.3258   -6.0728    3.3786 H   0  0  0  0  0
   46.6266   -6.4860    1.4849 H   0  0  0  0  0
   47.4956   -7.4396    2.5956 H   0  0  0  0  0
   48.3161   -4.6818    1.5221 H   0  0  0  0  0
   49.2212   -6.1037    1.4273 H   0  0  0  0  0
   49.5971   -6.2022    3.8735 H   0  0  0  0  0
   49.7543   -4.5473    3.5318 H   0  0  0  0  0
  1  2  1  0  0  0
  2  3  1  0  0  0
  2  5  1  0  0  0
  3  4  2  0  0  0
  3  8  1  0  0  0
  5  6  1  0  0  0
  5  7  1  0  0  0
  8  9  1  0  0  0
  9 10  1  0  0  0
  9 12  1  0  0  0
 10 11  2  0  0  0
 10 15  1  0  0  0
 12 13  1  0  0  0
 12 14  1  0  0  0
 15 16  1  0  0  0
 16 17  1  0  0  0
 17 18  2  0  0  0
 17 19  1  0  0  0
 19 20  1  0  0  0
 20 21  1  0  0  0
 20 23  1  0  0  0
 21 22  2  0  0  0
 21 26  1  0  0  0
 23 24  1  0  0  0
 23 25  1  0  0  0
 26 27  1  0  0  0
 27 28  1  0  0  0
 27 30  1  0  0  0
 28 29  2  0  0  0
 28 38  1  0  0  0
 30 31  1  0  0  0
 31 32  4  0  0  0
 31 33  4  0  0  0
 32 34  4  0  0  0
 33 35  4  0  0  0
 34 36  4  0  0  0
 35 36  4  0  0  0
 36 37  1  0  0  0
 38 39  1  0  0  0
 39 40  1  0  0  0
 39 42  1  0  0  0
 40 41  2  0  0  0
 40 45  1  0  0  0
 42 43  1  0  0  0
 42 44  1  0  0  0
 45 46  1  0  0  0
 46 47  1  0  0  0
 46 49  1  0  0  0
 47 48  2  0  0  0
 47 54  1  0  0  0
 49 50  1  0  0  0
 50 51  1  0  0  0
 51 52  1  0  0  0
 52 53  1  0  0  0
 54 55  1  0  0  0
 55 56  1  0  0  0
 55 58  1  0  0  0
 56 57  2  0  0  0
 56 62  1  0  0  0
 58 59  1  0  0  0
 59 60  1  0  0  0
 60 61  1  0  0  0
 62 63  1  0  0  0
 62 68  1  0  0  0
 63 64  1  0  0  0
 63 66  1  0  0  0
 64 65  2  0  0  0
 64 69  1  0  0  0
 66 67  1  0  0  0
 67 68  1  0  0  0
 69 70  1  0  0  0
 69 75  1  0  0  0
 70 71  1  0  0  0
 70 73  1  0  0  0
 71 72  1  0  0  0
 71 76  2  0  0  0
 73 74  1  0  0  0
 74 75  1  0  0  0
  1 77  1  0  0  0
  1 78  1  0  0  0
  1 79  1  0  0  0
  2 80  1  0  0  0
  5 81  1  0  0  0
  6 82  1  0  0  0
  7 83  1  0  0  0
  7 84  1  0  0  0
  7 85  1  0  0  0
  8 86  1  0  0  0
  9 87  1  0  0  0
 12 88  1  0  0  0
 13 89  1  0  0  0
 14 90  1  0  0  0
 14 91  1  0  0  0
 14 92  1  0  0  0
 15 93  1  0  0  0
 16 94  1  0  0  0
 16 95  1  0  0  0
 19 96  1  0  0  0
 20 97  1  0  0  0
 23 98  1  0  0  0
 24 99  1  0  0  0
 24100  1  0  0  0
 24101  1  0  0  0
 25102  1  0  0  0
 25103  1  0  0  0
 25104  1  0  0  0
 26105  1  0  0  0
 27106  1  0  0  0
 30107  1  0  0  0
 30108  1  0  0  0
 32109  1  0  0  0
 33110  1  0  0  0
 34111  1  0  0  0
 35112  1  0  0  0
 37113  1  0  0  0
 38114  1  0  0  0
 39115  1  0  0  0
 42116  1  0  0  0
 43117  1  0  0  0
 43118  1  0  0  0
 43119  1  0  0  0
 44120  1  0  0  0
 44121  1  0  0  0
 44122  1  0  0  0
 45123  1  0  0  0
 46124  1  0  0  0
 49125  1  0  0  0
 49126  1  0  0  0
 50127  1  0  0  0
 50128  1  0  0  0
 51129  1  0  0  0
 51130  1  0  0  0
 52131  1  0  0  0
 52132  1  0  0  0
 53133  1  0  0  0
 53134  1  0  0  0
 53135  1  0  0  0
 54136  1  0  0  0
 55137  1  0  0  0
 58138  1  0  0  0
 58139  1  0  0  0
 59140  1  0  0  0
 59141  1  0  0  0
 61142  1  0  0  0
 61143  1  0  0  0
 61144  1  0  0  0
 63145  1  0  0  0
 66146  1  0  0  0
 66147  1  0  0  0
 67148  1  0  0  0
 67149  1  0  0  0
 68150  1  0  0  0
 68151  1  0  0  0
 70152  1  0  0  0
 72153  1  0  0  0
 73154  1  0  0  0
 73155  1  0  0  0
 74156  1  0  0  0
 74157  1  0  0  0
 75158  1  0  0  0
 75159  1  0  0  0
M  END
$$$$
