### 
### Created by X-TOOL on Mon Sep 10 21:12:48 2018
### 

@<TRIPOS>MOLECULE
1h6e_ligand
  158   160     1     0     0
SMALL
GAST_HUCK


@<TRIPOS>ATOM
      1 N          64.4000    7.4190   10.5870 N.4       1 THR         0.2398
      2 CA         63.9000    6.8040    9.3200 C.3       1 THR         0.0910
      3 C          63.2900    7.8590    8.4080 C.2       1 THR         0.2293
      4 O          62.4780    8.6680    8.8510 O.2       1 THR        -0.3906
      5 CB         62.8060    5.7260    9.5910 C.3       1 THR         0.1120
      6 OG1        61.5630    6.3530    9.9410 O.3       1 THR        -0.3840
      7 CG2        63.2370    4.8000   10.7210 C.3       1 THR        -0.0314
      8 N          63.6810    7.8680    7.1400 N.am      1 THR        -0.2585
      9 CA         63.1140    8.8320    6.2120 C.3       1 THR         0.1566
     10 C          63.0050    8.2620    4.8160 C.2       1 THR         0.2063
     11 O          62.1560    8.6880    4.0310 O.2       1 THR        -0.3943
     12 CB         63.9220   10.1470    6.1760 C.3       1 THR         0.0924
     13 OG1        63.4390   11.0200    7.2020 O.3       1 THR        -0.3874
     14 CG2        63.7720   10.8480    4.8300 C.3       1 THR        -0.0346
     15 N          63.8560    7.2960    4.5010 N.am      1 GLY        -0.2663
     16 CA         63.8040    6.6940    3.1830 C.3       1 GLY         0.1201
     17 C          63.4120    5.2450    3.3240 C.2       1 GLY         0.2008
     18 O          62.9750    4.6030    2.3650 O.2       1 GLY        -0.3947
     19 N          63.5720    4.7390    4.5400 N.am      1 VAL        -0.2637
     20 CA         63.2440    3.3630    4.8550 C.3       1 VAL         0.1332
     21 C          61.8160    3.1040    4.4350 C.2       1 VAL         0.2043
     22 O          60.9380    3.9210    4.6940 O.2       1 VAL        -0.3944
     23 CB         63.3540    3.1030    6.3650 C.3       1 VAL        -0.0063
     24 CG1        62.3400    3.9600    7.1020 C.3       1 VAL        -0.0584
     25 CG2        63.1220    1.6270    6.6730 C.3       1 VAL        -0.0584
     26 N          61.5970    1.9750    3.7770 N.am      1 TYR        -0.2621
     27 CA         60.2710    1.5950    3.3380 C.3       1 TYR         0.1390
     28 C          59.5910    0.8650    4.4800 C.2       1 TYR         0.2057
     29 O          60.2130    0.5870    5.5000 O.2       1 TYR        -0.3942
     30 CB         60.3650    0.6680    2.1320 C.3       1 TYR         0.0163
     31 CG         60.4710    1.3760    0.8050 C.ar      1 TYR        -0.0493
     32 CD1        59.3740    2.0390    0.2520 C.ar      1 TYR        -0.0685
     33 CD2        61.6640    1.3800    0.0960 C.ar      1 TYR        -0.0685
     34 CE1        59.4690    2.6850   -0.9750 C.ar      1 TYR        -0.0398
     35 CE2        61.7700    2.0260   -1.1290 C.ar      1 TYR        -0.0398
     36 CZ         60.6730    2.6740   -1.6570 C.ar      1 TYR         0.0805
     37 OH         60.7980    3.3220   -2.8610 O.3       1 TYR        -0.3376
     38 N          58.3050    0.5770    4.3140 N.am      1 VAL        -0.2633
     39 CA         57.5550   -0.1610    5.3180 C.3       1 VAL         0.1333
     40 C          56.4770   -1.0010    4.6470 C.2       1 VAL         0.2041
     41 O          55.8200   -0.5590    3.7000 O.2       1 VAL        -0.3944
     42 CB         56.8960    0.7550    6.3560 C.3       1 VAL        -0.0063
     43 CG1        56.1540   -0.0880    7.3760 C.3       1 VAL        -0.0584
     44 CG2        57.9400    1.5650    7.0610 C.3       1 VAL        -0.0584
     45 N          56.3150   -2.2190    5.1530 N.am      1 LYS        -0.2637
     46 CA         55.3480   -3.1760    4.6360 C.3       1 LYS         0.1310
     47 C          53.9390   -2.6360    4.8000 C.2       1 LYS         0.2039
     48 O          53.6010   -2.0660    5.8410 O.2       1 LYS        -0.3944
     49 CB         55.4590   -4.5100    5.3840 C.3       1 LYS        -0.0122
     50 CG         56.8150   -4.7810    6.0250 C.3       1 LYS        -0.0440
     51 CD         57.1010   -3.8260    7.1980 C.3       1 LYS        -0.0124
     52 CE         58.5080   -4.0280    7.7690 C.3       1 LYS        -0.0354
     53 NZ         58.9490   -2.9010    8.6460 N.4       1 LYS         0.2185
     54 N          53.1220   -2.8100    3.7650 N.am      1 MET        -0.2637
     55 CA         51.7420   -2.3560    3.8110 C.3       1 MET         0.1319
     56 C          50.9580   -3.3730    4.6100 C.2       1 MET         0.2064
     57 O          51.3640   -4.5340    4.7190 O.2       1 MET        -0.3942
     58 CB         51.1550   -2.2480    2.4100 C.3       1 MET        -0.0034
     59 CG         51.7890   -1.1680    1.5730 C.3       1 MET        -0.0024
     60 SD         50.9120   -0.9100    0.0360 S.3       1 MET        -0.1639
     61 CE         49.4320   -0.1970    0.6550 C.3       1 MET        -0.0181
     62 N          49.8300   -2.9460    5.1960 N.am      1 PRO        -0.2498
     63 CA         48.9620   -3.8100    6.0060 C.3       1 PRO         0.1339
     64 C          47.6720   -4.3250    5.3390 C.2       1 PRO         0.2060
     65 O          46.5710   -4.0460    5.8200 O.2       1 PRO        -0.3942
     66 CB         48.6610   -2.9280    7.2030 C.3       1 PRO        -0.0104
     67 CG         48.4850   -1.5860    6.5410 C.3       1 PRO        -0.0281
     68 CD         49.6160   -1.5240    5.5300 C.3       1 PRO         0.0369
     69 N          47.7930   -5.0870    4.2300 N.am      1 PRO        -0.2556
     70 CA         46.6350   -5.6380    3.5110 C.3       1 PRO         0.0972
     71 C          45.7660   -6.5470    4.3860 C.2       1 PRO         0.0603
     72 O          44.5370   -6.6410    4.1230 O.co2     1 PRO        -0.5666
     73 CB         47.2800   -6.3990    2.3530 C.3       1 PRO        -0.0159
     74 CG         48.5080   -5.5990    2.0790 C.3       1 PRO        -0.0288
     75 CD         49.0300   -5.3600    3.4770 C.3       1 PRO         0.0362
     76 OXT        46.3430   -7.1710    5.3090 O.co2     1 PRO        -0.5666
     77 H1         65.1032    8.1082   10.3712 H         1 THR         0.2016
     78 H2         64.8000    6.7030   11.1730 H         1 THR         0.2016
     79 H3         63.6341    7.8606   11.0712 H         1 THR         0.2016
     80 H4         64.7497    6.3303    8.8066 H         1 THR         0.1125
     81 H5         62.6620    5.1312    8.6770 H         1 THR         0.0674
     82 H6         61.2787    6.9108    9.2264 H         1 THR         0.2102
     83 H7         62.4541    4.0477   10.8974 H         1 THR         0.0258
     84 H8         63.3936    5.3880   11.6374 H         1 THR         0.0258
     85 H9         64.1745    4.2955   10.4443 H         1 THR         0.0258
     86 H10        64.3656    7.2116    6.8231 H         1 THR         0.1885
     87 H11        62.0985    9.0696    6.5615 H         1 THR         0.0826
     88 H12        64.9845    9.9225    6.3511 H         1 THR         0.0639
     89 H13        63.5452   10.6015    8.0483 H         1 THR         0.2101
     90 H14        64.3573   11.7793    4.8344 H         1 THR         0.0257
     91 H15        62.7116   11.0822    4.6547 H         1 THR         0.0257
     92 H16        64.1389   10.1882    4.0300 H         1 THR         0.0257
     93 H17        64.5310    6.9837    5.1694 H         1 GLY         0.1881
     94 H18        64.7924    6.7644    2.7054 H         1 GLY         0.0763
     95 H19        63.0603    7.2195    2.5659 H         1 GLY         0.0763
     96 H20        63.9314    5.3275    5.2642 H         1 VAL         0.1883
     97 H21        63.9252    2.6895    4.3143 H         1 VAL         0.0802
     98 H22        64.3647    3.3786    6.7005 H         1 VAL         0.0343
     99 H23        62.4191    3.7735    8.1832 H         1 VAL         0.0234
    100 H24        61.3263    3.7051    6.7592 H         1 VAL         0.0234
    101 H25        62.5400    5.0222    6.8976 H         1 VAL         0.0234
    102 H26        63.8628    1.0190    6.1331 H         1 VAL         0.0234
    103 H27        62.1093    1.3404    6.3532 H         1 VAL         0.0234
    104 H28        63.2267    1.4573    7.7548 H         1 VAL         0.0234
    105 H29        62.3678    1.3697    3.5785 H         1 TYR         0.1885
    106 H30        59.6949    2.4927    3.0691 H         1 TYR         0.0821
    107 H31        59.4646    0.0364    2.1133 H         1 TYR         0.0453
    108 H32        61.2553    0.0338    2.2549 H         1 TYR         0.0453
    109 H33        58.4322    2.0502    0.7886 H         1 TYR         0.0530
    110 H34        62.5284    0.8699    0.5055 H         1 TYR         0.0530
    111 H35        58.6078    3.1928   -1.3939 H         1 TYR         0.0525
    112 H36        62.7107    2.0209   -1.6676 H         1 TYR         0.0525
    113 H37        59.9664    3.7178   -3.0942 H         1 TYR         0.2458
    114 H38        57.8417    0.8746    3.4792 H         1 VAL         0.1883
    115 H39        58.2528   -0.8307    5.8419 H         1 VAL         0.0802
    116 H40        56.1887    1.4291    5.8507 H         1 VAL         0.0343
    117 H41        55.6813    0.5693    8.1206 H         1 VAL         0.0234
    118 H42        56.8624   -0.7624    7.8794 H         1 VAL         0.0234
    119 H43        55.3803   -0.6821    6.8676 H         1 VAL         0.0234
    120 H44        58.4835    2.1799    6.3285 H         1 VAL         0.0234
    121 H45        58.6454    0.8913    7.5694 H         1 VAL         0.0234
    122 H46        57.4579    2.2188    7.8027 H         1 VAL         0.0234
    123 H47        56.8859   -2.4916    5.9275 H         1 LYS         0.1883
    124 H48        55.5493   -3.3438    3.5677 H         1 LYS         0.0800
    125 H49        55.2522   -5.3199    4.6689 H         1 LYS         0.0312
    126 H50        54.6985   -4.5194    6.1787 H         1 LYS         0.0312
    127 H51        57.5991   -4.6533    5.2642 H         1 LYS         0.0269
    128 H52        56.8309   -5.8157    6.3979 H         1 LYS         0.0269
    129 H53        56.3644   -4.0099    7.9940 H         1 LYS         0.0317
    130 H54        57.0066   -2.7890    6.8435 H         1 LYS         0.0317
    131 H55        59.2163   -4.1190    6.9323 H         1 LYS         0.0813
    132 H56        58.5169   -4.9560    8.3596 H         1 LYS         0.0813
    133 H57        59.8774   -3.0876    8.9915 H         1 LYS         0.1994
    134 H58        58.3131   -2.8112    9.4229 H         1 LYS         0.1994
    135 H59        58.9540   -2.0442    8.1151 H         1 LYS         0.1994
    136 H60        53.4633   -3.2612    2.9404 H         1 MET         0.1883
    137 H61        51.6919   -1.3729    4.3018 H         1 MET         0.0800
    138 H62        50.0799   -2.0332    2.4988 H         1 MET         0.0320
    139 H63        51.2953   -3.2118    1.8987 H         1 MET         0.0320
    140 H64        52.8258   -1.4572    1.3460 H         1 MET         0.0378
    141 H65        51.7872   -0.2284    2.1449 H         1 MET         0.0378
    142 H66        48.7568    0.0315   -0.1828 H         1 MET         0.0340
    143 H67        49.6703    0.7300    1.1971 H         1 MET         0.0340
    144 H68        48.9415   -0.9057    1.3384 H         1 MET         0.0340
    145 H69        49.5357   -4.6929    6.3244 H         1 PRO         0.0802
    146 H70        49.4975   -2.9185    7.9172 H         1 PRO         0.0313
    147 H71        47.7428   -3.2469    7.7179 H         1 PRO         0.0313
    148 H72        48.5730   -0.7727    7.2764 H         1 PRO         0.0287
    149 H73        47.5082   -1.5226    6.0392 H         1 PRO         0.0287
    150 H74        49.3219   -0.9474    4.6406 H         1 PRO         0.0524
    151 H75        50.5199   -1.0800    5.9726 H         1 PRO         0.0524
    152 H76        46.0049   -4.8221    3.1271 H         1 PRO         0.0728
    153 H77        46.6174   -6.4218    1.4753 H         1 PRO         0.0306
    154 H78        47.5344   -7.4279    2.6472 H         1 PRO         0.0306
    155 H79        48.2665   -4.6526    1.5730 H         1 PRO         0.0286
    156 H80        49.2296   -6.1655    1.4721 H         1 PRO         0.0286
    157 H81        49.5462   -6.2495    3.8672 H         1 PRO         0.0524
    158 H82        49.7126   -4.4979    3.5056 H         1 PRO         0.0524
@<TRIPOS>BOND
     1    1    2 1  
     2    2    3 1  
     3    2    5 1  
     4    3    4 2  
     5    3    8 am 
     6    5    6 1  
     7    5    7 1  
     8    8    9 1  
     9    9   10 1  
    10    9   12 1  
    11   10   11 2  
    12   10   15 am 
    13   12   13 1  
    14   12   14 1  
    15   15   16 1  
    16   16   17 1  
    17   17   18 2  
    18   17   19 am 
    19   19   20 1  
    20   20   21 1  
    21   20   23 1  
    22   21   22 2  
    23   21   26 am 
    24   23   24 1  
    25   23   25 1  
    26   26   27 1  
    27   27   28 1  
    28   27   30 1  
    29   28   29 2  
    30   28   38 am 
    31   30   31 1  
    32   31   32 ar 
    33   31   33 ar 
    34   32   34 ar 
    35   33   35 ar 
    36   34   36 ar 
    37   35   36 ar 
    38   36   37 1  
    39   38   39 1  
    40   39   40 1  
    41   39   42 1  
    42   40   41 2  
    43   40   45 am 
    44   42   43 1  
    45   42   44 1  
    46   45   46 1  
    47   46   47 1  
    48   46   49 1  
    49   47   48 2  
    50   47   54 am 
    51   49   50 1  
    52   50   51 1  
    53   51   52 1  
    54   52   53 1  
    55   54   55 1  
    56   55   56 1  
    57   55   58 1  
    58   56   57 2  
    59   56   62 am 
    60   58   59 1  
    61   59   60 1  
    62   60   61 1  
    63   62   63 1  
    64   62   68 1  
    65   63   64 1  
    66   63   66 1  
    67   64   65 2  
    68   64   69 am 
    69   66   67 1  
    70   67   68 1  
    71   69   70 1  
    72   69   75 1  
    73   70   71 1  
    74   70   73 1  
    75   71   72 ar 
    76   71   76 ar 
    77   73   74 1  
    78   74   75 1  
    79    1   77 1  
    80    1   78 1  
    81    1   79 1  
    82    2   80 1  
    83    5   81 1  
    84    6   82 1  
    85    7   83 1  
    86    7   84 1  
    87    7   85 1  
    88    8   86 1  
    89    9   87 1  
    90   12   88 1  
    91   13   89 1  
    92   14   90 1  
    93   14   91 1  
    94   14   92 1  
    95   15   93 1  
    96   16   94 1  
    97   16   95 1  
    98   19   96 1  
    99   20   97 1  
   100   23   98 1  
   101   24   99 1  
   102   24  100 1  
   103   24  101 1  
   104   25  102 1  
   105   25  103 1  
   106   25  104 1  
   107   26  105 1  
   108   27  106 1  
   109   30  107 1  
   110   30  108 1  
   111   32  109 1  
   112   33  110 1  
   113   34  111 1  
   114   35  112 1  
   115   37  113 1  
   116   38  114 1  
   117   39  115 1  
   118   42  116 1  
   119   43  117 1  
   120   43  118 1  
   121   43  119 1  
   122   44  120 1  
   123   44  121 1  
   124   44  122 1  
   125   45  123 1  
   126   46  124 1  
   127   49  125 1  
   128   49  126 1  
   129   50  127 1  
   130   50  128 1  
   131   51  129 1  
   132   51  130 1  
   133   52  131 1  
   134   52  132 1  
   135   53  133 1  
   136   53  134 1  
   137   53  135 1  
   138   54  136 1  
   139   55  137 1  
   140   58  138 1  
   141   58  139 1  
   142   59  140 1  
   143   59  141 1  
   144   61  142 1  
   145   61  143 1  
   146   61  144 1  
   147   63  145 1  
   148   66  146 1  
   149   66  147 1  
   150   67  148 1  
   151   67  149 1  
   152   68  150 1  
   153   68  151 1  
   154   70  152 1  
   155   73  153 1  
   156   73  154 1  
   157   74  155 1  
   158   74  156 1  
   159   75  157 1  
   160   75  158 1  
@<TRIPOS>SUBSTRUCTURE
     1 THR         1

