5vgi_ligand
  -I-interpret- 

 54 57  0  0  0  0  0  0  0  0999 V2000
  -14.4100    0.5100   53.2700 C   0  0  0  0  0
  -13.5860    1.6200   53.2690 C   0  0  0  0  0
  -13.1510    4.0650   52.7760 C   0  0  0  0  0
  -16.6650    6.6910   51.4350 C   0  0  0  0  0
  -18.8300    7.9950   51.9640 C   0  0  0  0  0
  -18.8450    5.9800   50.2020 C   0  0  0  0  0
  -20.9780    5.7040   48.9800 C   0  0  0  0  0
  -19.6310    5.2890   49.2220 C   0  0  0  0  0
  -23.8320    7.0520   48.3990 C   0  0  0  0  0
  -24.8860    5.4950   46.7910 C   0  0  0  0  0
  -25.4070    7.9330   46.6620 C   0  0  0  0  0
  -13.6530    5.2230   52.6810 O   0  0  0  0  0
  -11.9340    3.8450   52.8950 O   0  0  0  0  0
  -14.0300    2.8320   52.7170 C   0  0  0  0  0
  -15.6230    0.5470   52.7040 N   0  0  0  0  0
  -16.1450    1.7080   52.1340 C   0  0  0  0  0
  -15.4060    2.9230   52.1300 C   0  0  0  0  0
  -15.8380    4.1340   51.5970 N   0  0  0  0  0
  -17.2440    4.3910   51.2820 C   0  0  0  0  0
  -17.3860    5.6780   50.5160 C   0  0  0  0  0
  -21.5960    6.8040   49.6630 C   0  0  0  0  0
  -20.8170    7.4820   50.5940 C   0  0  0  0  0
  -19.5200    7.1420   50.9040 C   0  0  0  0  0
  -17.3300    8.0490   51.7020 C   0  0  0  0  0
  -22.9660    7.3130   49.5350 N   0  0  0  0  0
  -23.5220    8.1420   50.6650 C   0  0  0  0  0
  -24.5400    8.1420   47.7670 C   0  0  0  0  0
  -25.5570    6.6030   46.1940 C   0  0  0  0  0
  -24.0320    5.7200   47.8970 C   0  0  0  0  0
  -14.0663   -0.4115   53.7398 H   0  0  0  0  0
  -12.5866    1.5538   53.6990 H   0  0  0  0  0
  -15.7344    6.9282   50.9195 H   0  0  0  0  0
  -16.6153    6.2040   52.4089 H   0  0  0  0  0
  -19.0050    7.5546   52.9456 H   0  0  0  0  0
  -19.2351    9.0063   51.9272 H   0  0  0  0  0
  -21.5638    5.1579   48.2405 H   0  0  0  0  0
  -19.2052    4.4539   48.6658 H   0  0  0  0  0
  -25.0291    4.4875   46.4003 H   0  0  0  0  0
  -25.9362    8.7621   46.1922 H   0  0  0  0  0
  -14.6067    5.1513   52.5982 H   0  0  0  0  0
  -17.1372    1.6836   51.6835 H   0  0  0  0  0
  -15.1514    4.8672   51.4199 H   0  0  0  0  0
  -17.8067    4.4688   52.2123 H   0  0  0  0  0
  -17.6255    3.5721   50.6721 H   0  0  0  0  0
  -16.9445    5.6802   49.5194 H   0  0  0  0  0
  -21.2603    8.3341   51.1093 H   0  0  0  0  0
  -17.1903    8.6486   50.8025 H   0  0  0  0  0
  -16.8687    8.4520   52.6036 H   0  0  0  0  0
  -23.8043    9.1250   50.2880 H   0  0  0  0  0
  -24.3986    7.6455   51.0810 H   0  0  0  0  0
  -22.7636    8.2527   51.4400 H   0  0  0  0  0
  -24.4045    9.1536   48.1496 H   0  0  0  0  0
  -26.2124    6.4197   45.3425 H   0  0  0  0  0
  -23.5238    4.8797   48.3701 H   0  0  0  0  0
  2  1  4  0  0  0
 15  1  4  0  0  0
 14  2  4  0  0  0
  3 12  1  0  0  0
  3 13  2  0  0  0
 14  3  1  0  0  0
 20  4  1  0  0  0
  4 24  1  0  0  0
 23  5  1  0  0  0
  5 24  1  0  0  0
  8  6  4  0  0  0
  6 20  1  0  0  0
  6 23  4  0  0  0
  7  8  4  0  0  0
 21  7  4  0  0  0
 25  9  1  0  0  0
  9 27  4  0  0  0
  9 29  4  0  0  0
 10 28  4  0  0  0
 29 10  4  0  0  0
 27 11  4  0  0  0
 11 28  4  0  0  0
 17 14  4  0  0  0
 16 15  4  0  0  0
 17 16  4  0  0  0
 18 17  1  0  0  0
 19 18  1  0  0  0
 20 19  1  0  0  0
 21 22  4  0  0  0
 21 25  1  0  0  0
 22 23  4  0  0  0
 25 26  1  0  0  0
  1 30  1  0  0  0
  2 31  1  0  0  0
  4 32  1  0  0  0
  4 33  1  0  0  0
  5 34  1  0  0  0
  5 35  1  0  0  0
  7 36  1  0  0  0
  8 37  1  0  0  0
 10 38  1  0  0  0
 11 39  1  0  0  0
 12 40  1  0  0  0
 16 41  1  0  0  0
 18 42  1  0  0  0
 19 43  1  0  0  0
 19 44  1  0  0  0
 20 45  1  0  0  0
 22 46  1  0  0  0
 24 47  1  0  0  0
 24 48  1  0  0  0
 26 49  1  0  0  0
 26 50  1  0  0  0
 26 51  1  0  0  0
 27 52  1  0  0  0
 28 53  1  0  0  0
 29 54  1  0  0  0
M  END
$$$$
