1dgm_ligand
  -I-interpret- 

 32 34  0  0  0  0  0  0  0  0999 V2000
    2.9270    7.7700   15.4440 O   0  0  0  0  0
    2.7310    9.1180   15.0240 C   0  0  0  0  0
    1.4510    9.2380   14.2270 C   0  0  0  0  0
    0.3540    8.6900   15.0050 O   0  0  0  0  0
    1.0380   10.6680   13.9180 C   0  0  0  0  0
    1.6390   11.1290   12.7120 O   0  0  0  0  0
   -0.4750   10.5590   13.7890 C   0  0  0  0  0
   -0.9030   10.1620   12.5000 O   0  0  0  0  0
   -0.8020    9.4980   14.8460 C   0  0  0  0  0
   -1.1560   10.0440   16.1600 N   0  0  0  0  0
   -0.7490   11.2280   16.7240 C   0  0  0  0  0
   -1.2400   11.4410   17.9220 N   0  0  0  0  0
   -2.0240   10.3220   18.1650 C   0  0  0  0  0
   -2.8180    9.9410   19.2640 C   0  0  0  0  0
   -2.9670   10.6790   20.3660 N   0  0  0  0  0
   -3.4660    8.7610   19.1890 N   0  0  0  0  0
   -3.3280    8.0260   18.0800 C   0  0  0  0  0
   -2.6190    8.2760   16.9830 N   0  0  0  0  0
   -1.9820    9.4540   17.0890 C   0  0  0  0  0
    3.7417    7.7083   15.9480 H   0  0  0  0  0
    3.5701    9.4215   14.3979 H   0  0  0  0  0
    2.6644    9.7588   15.9032 H   0  0  0  0  0
    1.6476    8.7119   13.2928 H   0  0  0  0  0
    1.3507   11.3854   14.6768 H   0  0  0  0  0
    2.5900   11.1850   12.8308 H   0  0  0  0  0
   -0.9813   11.5134   13.9338 H   0  0  0  0  0
   -0.6827   10.8480   11.8655 H   0  0  0  0  0
   -1.6745    8.9486   14.4925 H   0  0  0  0  0
   -0.0795   11.9268   16.2225 H   0  0  0  0  0
   -2.4902   11.5771   20.4467 H   0  0  0  0  0
   -3.5577   10.3449   21.1275 H   0  0  0  0  0
   -3.8770    7.0844   18.0746 H   0  0  0  0  0
  1  2  1  0  0  0
  2  3  1  0  0  0
  3  4  1  0  0  0
  3  5  1  0  0  0
  4  9  1  0  0  0
  5  6  1  0  0  0
  5  7  1  0  0  0
  7  8  1  0  0  0
  7  9  1  0  0  0
  9 10  1  0  0  0
 10 11  4  0  0  0
 10 19  4  0  0  0
 11 12  4  0  0  0
 12 13  4  0  0  0
 13 14  4  0  0  0
 13 19  4  0  0  0
 14 15  1  0  0  0
 14 16  4  0  0  0
 16 17  4  0  0  0
 17 18  4  0  0  0
 18 19  4  0  0  0
  1 20  1  0  0  0
  2 21  1  0  0  0
  2 22  1  0  0  0
  3 23  1  0  0  0
  5 24  1  0  0  0
  6 25  1  0  0  0
  7 26  1  0  0  0
  8 27  1  0  0  0
  9 28  1  0  0  0
 11 29  1  0  0  0
 15 30  1  0  0  0
 15 31  1  0  0  0
 17 32  1  0  0  0
M  END
$$$$
