5nb7_ligand
  -I-interpret- 

 50 54  0  0  0  0  0  0  0  0999 V2000
   10.8980   10.7360    1.3750 C   0  0  0  0  0
    4.3300    6.6170    1.6370 C   0  0  0  0  0
    9.6360   10.1210    1.0270 C   0  0  0  0  0
   10.9090    9.6470    0.4740 C   0  0  0  0  0
    3.1490    9.0760    1.8770 C   0  0  0  0  0
    8.0870    8.6800    2.1990 C   0  0  0  0  0
    7.4290    8.2990    0.8890 C   0  0  0  0  0
    5.0450    7.7890    1.4080 C   0  0  0  0  0
    4.4800    9.0570    1.5660 C   0  0  0  0  0
    2.4010    7.9350    2.1070 C   0  0  0  0  0
    2.9530    6.6740    1.9600 C   0  0  0  0  0
    9.0720    9.5510    2.1820 N   0  0  0  0  0
    6.3090    7.4170    1.0960 N   0  0  0  0  0
   11.0670   10.7170    2.8490 C   0  0  0  0  0
    5.9450    3.3760    0.9240 N   0  0  0  0  0
    8.1170   11.1750    4.2590 O   0  0  0  0  0
    9.0460   10.4340    4.4920 C   0  0  0  0  0
    9.8620    9.9120    3.3160 C   0  0  0  0  0
    5.2450    5.5660    1.3780 C   0  0  0  0  0
    4.9950    4.1500    1.4090 C   0  0  0  0  0
    3.9400    3.7100    1.9020 O   0  0  0  0  0
    6.4290    6.0940    1.0640 N   0  0  0  0  0
    7.7530    8.1520    3.2440 O   0  0  0  0  0
    9.4440   10.0320    5.7390 N   0  0  0  0  0
    8.7330   10.2340    6.9600 C   0  0  0  0  0
    7.8150   11.2390    7.1200 C   0  0  0  0  0
    7.1160   11.2920    8.3340 C   0  0  0  0  0
    7.2900   10.3040    9.2490 C   0  0  0  0  0
    8.2390    9.3520    9.0750 C   0  0  0  0  0
    8.4880    7.9680   10.2790 Br  0  0  0  0  0
    8.9250    9.2850    7.9030 N   0  0  0  0  0
   11.4714   11.6588    1.2869 H   0  0  0  0  0
    8.6847   10.3365    0.5405 H   0  0  0  0  0
   11.4395    8.7042    0.3409 H   0  0  0  0  0
   11.3330    9.3978   -0.4987 H   0  0  0  0  0
    2.6499   10.0425    1.9476 H   0  0  0  0  0
    8.1642    7.7834    0.2711 H   0  0  0  0  0
    7.0678    9.2078    0.4076 H   0  0  0  0  0
    5.0622    9.9710    1.4490 H   0  0  0  0  0
    1.3582    8.0307    2.4094 H   0  0  0  0  0
    2.3571    5.7702    2.0867 H   0  0  0  0  0
   11.1051   11.7154    3.2847 H   0  0  0  0  0
   12.0157   10.2809    3.1618 H   0  0  0  0  0
    5.8352    2.3621    0.9413 H   0  0  0  0  0
    6.7900    3.7909    0.5313 H   0  0  0  0  0
   10.2877    9.0259    3.7869 H   0  0  0  0  0
   10.3355    9.5403    5.8014 H   0  0  0  0  0
    7.6350   11.9704    6.3321 H   0  0  0  0  0
    6.4381   12.1199    8.5418 H   0  0  0  0  0
    6.6574   10.2760   10.1362 H   0  0  0  0  0
  3  1  1  0  0  0
  4  1  1  0  0  0
 14  1  1  0  0  0
  2  8  4  0  0  0
  2 11  4  0  0  0
 19  2  4  0  0  0
  3  4  1  0  0  0
 12  3  1  0  0  0
  9  5  4  0  0  0
 10  5  4  0  0  0
  7  6  1  0  0  0
  6 12  1  0  0  0
  6 23  2  0  0  0
 13  7  1  0  0  0
  8  9  4  0  0  0
  8 13  4  0  0  0
 11 10  4  0  0  0
 12 18  1  0  0  0
 13 22  4  0  0  0
 18 14  1  0  0  0
 20 15  1  0  0  0
 17 16  2  0  0  0
 18 17  1  0  0  0
 17 24  1  0  0  0
 19 20  1  0  0  0
 19 22  4  0  0  0
 20 21  2  0  0  0
 24 25  1  0  0  0
 25 26  4  0  0  0
 25 31  4  0  0  0
 26 27  4  0  0  0
 27 28  4  0  0  0
 28 29  4  0  0  0
 29 30  1  0  0  0
 29 31  4  0  0  0
  1 32  1  0  0  0
  3 33  1  0  0  0
  4 34  1  0  0  0
  4 35  1  0  0  0
  5 36  1  0  0  0
  7 37  1  0  0  0
  7 38  1  0  0  0
  9 39  1  0  0  0
 10 40  1  0  0  0
 11 41  1  0  0  0
 14 42  1  0  0  0
 14 43  1  0  0  0
 15 44  1  0  0  0
 15 45  1  0  0  0
 18 46  1  0  0  0
 24 47  1  0  0  0
 26 48  1  0  0  0
 27 49  1  0  0  0
 28 50  1  0  0  0
M  END
$$$$
