4m84_ligand
  -I-interpret- 

 42 44  0  0  0  0  0  0  0  0999 V2000
   17.4570   16.2750   62.9320 C   0  0  0  0  0
   16.1470   16.4060   63.3790 C   0  0  0  0  0
   15.7140   15.6260   64.4370 C   0  0  0  0  0
   14.4160   15.7150   64.9160 C   0  0  0  0  0
   14.0250   14.9290   65.9880 C   0  0  0  0  0
   14.9020   14.0320   66.5820 C   0  0  0  0  0
   16.2000   13.9380   66.1090 C   0  0  0  0  0
   16.6140   14.7400   65.0390 C   0  0  0  0  0
   17.8760   14.6510   64.5730 N   0  0  0  0  0
   18.3280   15.3670   63.5370 C   0  0  0  0  0
   19.6110   15.2560   63.1320 C   0  0  0  0  0
   20.3140   16.3540   62.7790 N   0  0  0  0  0
   21.4830   16.0370   62.4470 N   0  0  0  0  0
   22.5370   17.0590   62.0130 C   0  0  0  0  0
   23.3470   16.5370   60.8060 C   0  0  0  0  0
   21.9160   18.4270   61.6370 C   0  0  0  0  0
   23.4730   17.2900   63.2060 C   0  0  0  0  0
   21.6000   14.6930   62.5950 C   0  0  0  0  0
   22.7300   14.0230   62.3290 N   0  0  0  0  0
   20.4320   14.1810   63.0210 C   0  0  0  0  0
   20.2630   12.8430   63.2410 C   0  0  0  0  0
   21.1660   12.0410   62.9930 O   0  0  0  0  0
   19.1020   12.3890   63.7250 N   0  0  0  0  0
   17.8074   16.8872   62.1010 H   0  0  0  0  0
   15.4695   17.1142   62.9021 H   0  0  0  0  0
   13.7066   16.3999   64.4516 H   0  0  0  0  0
   13.0088   15.0168   66.3724 H   0  0  0  0  0
   14.5722   13.4078   67.4125 H   0  0  0  0  0
   16.8990   13.2399   66.5696 H   0  0  0  0  0
   23.8496   15.6097   61.0810 H   0  0  0  0  0
   22.6724   16.3520   59.9700 H   0  0  0  0  0
   24.0886   17.2822   60.5181 H   0  0  0  0  0
   21.2174   18.2927   60.8112 H   0  0  0  0  0
   21.3876   18.8340   62.4991 H   0  0  0  0  0
   22.7075   19.1137   61.3370 H   0  0  0  0  0
   22.8971   17.6704   64.0497 H   0  0  0  0  0
   23.9461   16.3478   63.4827 H   0  0  0  0  0
   24.2386   18.0153   62.9304 H   0  0  0  0  0
   23.5545   14.5244   61.9985 H   0  0  0  0  0
   22.7655   13.0117   62.4570 H   0  0  0  0  0
   18.9718   11.3900   63.8847 H   0  0  0  0  0
   18.3467   13.0417   63.9345 H   0  0  0  0  0
  1  2  4  0  0  0
  1 10  4  0  0  0
  2  3  4  0  0  0
  3  4  4  0  0  0
  3  8  4  0  0  0
  4  5  4  0  0  0
  5  6  4  0  0  0
  6  7  4  0  0  0
  7  8  4  0  0  0
  8  9  4  0  0  0
  9 10  4  0  0  0
 10 11  1  0  0  0
 11 12  4  0  0  0
 11 20  4  0  0  0
 12 13  4  0  0  0
 13 14  1  0  0  0
 13 18  4  0  0  0
 14 15  1  0  0  0
 14 16  1  0  0  0
 14 17  1  0  0  0
 18 19  1  0  0  0
 18 20  4  0  0  0
 20 21  1  0  0  0
 21 22  2  0  0  0
 21 23  1  0  0  0
  1 24  1  0  0  0
  2 25  1  0  0  0
  4 26  1  0  0  0
  5 27  1  0  0  0
  6 28  1  0  0  0
  7 29  1  0  0  0
 15 30  1  0  0  0
 15 31  1  0  0  0
 15 32  1  0  0  0
 16 33  1  0  0  0
 16 34  1  0  0  0
 16 35  1  0  0  0
 17 36  1  0  0  0
 17 37  1  0  0  0
 17 38  1  0  0  0
 19 39  1  0  0  0
 19 40  1  0  0  0
 23 41  1  0  0  0
 23 42  1  0  0  0
M  END
$$$$
