5db2_ligand
  -I-interpret- 

 62 66  0  0  0  0  0  0  0  0999 V2000
   13.4760    7.7840   12.5450 C   0  0  0  0  0
   13.7350    9.1350   12.4360 C   0  0  0  0  0
   12.6890    9.9450   12.0100 C   0  0  0  0  0
   11.4490    9.4460   11.7320 N   0  0  0  0  0
   12.2690    7.2440   12.3040 N   0  0  0  0  0
   19.3390    7.7690   12.4220 F   0  0  0  0  0
   18.0620    7.7100   12.1470 C   0  0  0  0  0
   17.7150    6.4670   11.8600 F   0  0  0  0  0
   17.8350    8.3960   11.0710 F   0  0  0  0  0
   17.2850    8.2120   13.3780 C   0  0  0  0  0
   15.7990    8.2310   13.0270 C   0  0  0  0  0
   14.7930    6.8820   13.0300 S   0  0  0  0  0
   15.0680    9.3630   12.6860 C   0  0  0  0  0
   11.2700    8.0880   11.9020 C   0  0  0  0  0
   12.8550   11.3020   11.9140 N   0  0  0  0  0
   11.8030   12.2740   11.5800 C   0  0  0  0  0
   11.8940   13.4460   12.5560 C   0  0  0  0  0
   10.8870   14.5270   12.2910 C   0  0  0  0  0
   11.9830   12.8150   10.2120 C   0  0  0  0  0
   10.9260   13.8840    9.9810 C   0  0  0  0  0
   11.1110   15.0480   10.9120 N   0  3  0  0  0
   10.0820   16.0880   10.5890 C   0  0  0  0  0
   10.1890   17.2990   11.4100 C   0  0  0  0  0
    9.0050   17.8200   11.9810 C   0  0  0  0  0
   11.3960   18.0030   11.5850 C   0  0  0  0  0
   11.4180   19.1780   12.3820 C   0  0  0  0  0
   10.2400   19.6710   12.8620 C   0  0  0  0  0
    9.0820   18.9830   12.6920 C   0  0  0  0  0
    8.0890   19.7150   13.3250 C   0  0  0  0  0
    8.6810   20.7900   13.8550 C   0  0  0  0  0
    8.0900   21.9010   14.6470 C   0  0  0  0  0
    7.6670   22.7120   15.2100 N   0  0  0  0  0
   10.0090   20.8010   13.6170 N   0  0  0  0  0
   11.0460   21.7990   14.0500 C   0  0  0  0  0
   11.1700   22.8940   13.0200 C   0  0  0  0  0
   10.1690   23.3460   12.4500 O   0  0  0  0  0
   12.4150   23.3790   12.8760 N   0  0  0  0  0
   17.6192    9.2132   13.6501 H   0  0  0  0  0
   17.4615    7.5526   14.2278 H   0  0  0  0  0
   15.5164   10.3544   12.6217 H   0  0  0  0  0
   10.2838    7.6671   11.7063 H   0  0  0  0  0
   13.7899   11.6701   12.0895 H   0  0  0  0  0
   10.8397   11.7676   11.6414 H   0  0  0  0  0
   12.8845   13.8874   12.4457 H   0  0  0  0  0
   11.6997   13.0557   13.5550 H   0  0  0  0  0
   11.0020   15.3312   13.0177 H   0  0  0  0  0
    9.8770   14.1269   12.3799 H   0  0  0  0  0
   11.8765   12.0175    9.4766 H   0  0  0  0  0
   12.9794   13.2442   10.1068 H   0  0  0  0  0
    9.9449   13.4461   10.1650 H   0  0  0  0  0
   11.0153   14.2432    8.9558 H   0  0  0  0  0
   12.0385   15.4636   10.8256 H   0  0  0  0  0
    9.1032   15.6489   10.7822 H   0  0  0  0  0
   10.2326   16.3839    9.5508 H   0  0  0  0  0
    8.0525   17.3049   11.8564 H   0  0  0  0  0
   12.3104   17.6471   11.1102 H   0  0  0  0  0
   12.3603   19.6777   12.6065 H   0  0  0  0  0
    7.0300   19.4626   13.3799 H   0  0  0  0  0
   12.0068   21.2951   14.1551 H   0  0  0  0  0
   10.7477   22.2354   15.0032 H   0  0  0  0  0
   12.5842   24.1753   12.2615 H   0  0  0  0  0
   13.1908   22.9508   13.3812 H   0  0  0  0  0
  1  2  4  0  0  0
  1  5  4  0  0  0
 12  1  4  0  0  0
  2  3  4  0  0  0
  2 13  4  0  0  0
  3  4  4  0  0  0
  3 15  1  0  0  0
 14  4  4  0  0  0
  5 14  4  0  0  0
  7  6  1  0  0  0
  7  8  1  0  0  0
  7  9  1  0  0  0
 10  7  1  0  0  0
 11 10  1  0  0  0
 11 12  4  0  0  0
 11 13  4  0  0  0
 15 16  1  0  0  0
 16 17  1  0  0  0
 16 19  1  0  0  0
 17 18  1  0  0  0
 18 21  1  0  0  0
 19 20  1  0  0  0
 20 21  1  0  0  0
 21 22  1  0  0  0
 22 23  1  0  0  0
 23 24  4  0  0  0
 23 25  4  0  0  0
 24 28  4  0  0  0
 25 26  4  0  0  0
 26 27  4  0  0  0
 27 28  4  0  0  0
 27 33  4  0  0  0
 28 29  4  0  0  0
 29 30  4  0  0  0
 30 31  1  0  0  0
 30 33  4  0  0  0
 31 32  3  0  0  0
 33 34  1  0  0  0
 34 35  1  0  0  0
 35 36  2  0  0  0
 35 37  1  0  0  0
 10 38  1  0  0  0
 10 39  1  0  0  0
 13 40  1  0  0  0
 14 41  1  0  0  0
 15 42  1  0  0  0
 16 43  1  0  0  0
 17 44  1  0  0  0
 17 45  1  0  0  0
 18 46  1  0  0  0
 18 47  1  0  0  0
 19 48  1  0  0  0
 19 49  1  0  0  0
 20 50  1  0  0  0
 20 51  1  0  0  0
 21 52  1  0  0  0
 22 53  1  0  0  0
 22 54  1  0  0  0
 24 55  1  0  0  0
 25 56  1  0  0  0
 26 57  1  0  0  0
 29 58  1  0  0  0
 34 59  1  0  0  0
 34 60  1  0  0  0
 37 61  1  0  0  0
 37 62  1  0  0  0
M  END
$$$$
