6dxg_ligand
  -I-interpret- 

 56 59  0  0  0  0  0  0  0  0999 V2000
   -1.6710   31.5840  -14.9430 C   0  0  0  0  0
   -2.5330   32.4920  -14.3070 C   0  0  0  0  0
   -3.6970   32.0660  -13.6560 C   0  0  0  0  0
   -4.0310   30.7080  -13.6230 C   0  0  0  0  0
   -3.1820   29.7860  -14.2610 C   0  0  0  0  0
   -2.2090   28.0640  -15.0690 C   0  0  0  0  0
    1.3230   24.9050  -15.8480 C   0  0  0  0  0
    0.2240   24.5430  -14.8790 C   0  0  0  0  0
   -2.0720   22.2880  -16.5180 C   0  0  0  0  0
   -2.2230   20.9490  -17.0890 C   0  0  0  0  0
   -2.9320   23.3540  -16.3870 C   0  0  0  0  0
   -2.1820   24.3640  -15.7540 C   0  0  0  0  0
   -2.7330   25.7000  -15.3860 C   0  0  0  0  0
   -2.0250   30.2440  -14.8970 C   0  0  0  0  0
   -0.2190   29.0610  -16.2020 C   0  0  0  0  0
    1.1490   28.9130  -15.5490 C   0  0  0  0  0
    2.2330   28.9710  -16.6140 C   0  0  0  0  0
    2.9040   27.8210  -17.0470 C   0  0  0  0  0
    3.8930   27.9200  -18.0410 C   0  0  0  0  0
    4.1940   29.1650  -18.5980 C   0  0  0  0  0
    3.5240   30.3070  -18.1740 C   0  0  0  0  0
    2.5370   30.2060  -17.1900 C   0  0  0  0  0
   -4.5590   33.0410  -12.9780 C   0  0  0  0  0
   -0.9230   23.9590  -15.5110 N   0  0  0  0  0
   -0.9000   22.7040  -15.9820 N   0  0  0  0  0
   -1.8710   26.7750  -15.4060 N   0  0  0  0  0
   -3.2830   28.4210  -14.3800 N   0  0  0  0  0
   -1.4210   29.1160  -15.3900 N   0  0  0  0  0
   -5.5800   32.5560  -12.1520 N   0  0  0  0  0
   -3.9200   25.8710  -15.1020 O   0  0  0  0  0
    1.3190   29.9990  -14.6410 O   0  0  0  0  0
   -4.3880   34.2690  -13.1060 O   0  0  0  0  0
   -0.7652   31.9172  -15.4496 H   0  0  0  0  0
   -2.2899   33.5545  -14.3205 H   0  0  0  0  0
   -4.9328   30.3706  -13.1121 H   0  0  0  0  0
    1.6568   24.0074  -16.3686 H   0  0  0  0  0
    0.9443   25.6267  -16.5718 H   0  0  0  0  0
    2.1588   25.3414  -15.3010 H   0  0  0  0  0
   -0.1014   25.4627  -14.3928 H   0  0  0  0  0
    0.6276   23.8058  -14.1849 H   0  0  0  0  0
   -3.0106   20.4153  -16.5571 H   0  0  0  0  0
   -2.4870   21.0326  -18.1432 H   0  0  0  0  0
   -1.2834   20.4053  -16.9904 H   0  0  0  0  0
   -3.9731   23.4058  -16.7056 H   0  0  0  0  0
   -0.3348   28.1515  -16.7915 H   0  0  0  0  0
   -0.1797   30.0351  -16.6895 H   0  0  0  0  0
    1.2193   27.9594  -15.0257 H   0  0  0  0  0
    2.6600   26.8508  -16.6142 H   0  0  0  0  0
    4.4231   27.0284  -18.3759 H   0  0  0  0  0
    4.9593   29.2417  -19.3703 H   0  0  0  0  0
    3.7676   31.2771  -18.6073 H   0  0  0  0  0
    2.0000   31.0987  -16.8695 H   0  0  0  0  0
   -0.9079   26.6007  -15.6930 H   0  0  0  0  0
   -6.1857   33.2079  -11.6535 H   0  0  0  0  0
   -5.7182   31.5507  -12.0487 H   0  0  0  0  0
    2.1766   29.9277  -14.2156 H   0  0  0  0  0
  1  2  4  0  0  0
 14  1  4  0  0  0
  2  3  4  0  0  0
  4  3  4  0  0  0
  3 23  1  0  0  0
  5  4  4  0  0  0
 14  5  4  0  0  0
  5 27  4  0  0  0
  6 26  1  0  0  0
  6 27  4  0  0  0
 28  6  4  0  0  0
  8  7  1  0  0  0
 24  8  1  0  0  0
  9 10  1  0  0  0
 11  9  4  0  0  0
  9 25  4  0  0  0
 12 11  4  0  0  0
 13 12  1  0  0  0
 12 24  4  0  0  0
 26 13  1  0  0  0
 13 30  2  0  0  0
 28 14  4  0  0  0
 15 16  1  0  0  0
 15 28  1  0  0  0
 16 17  1  0  0  0
 16 31  1  0  0  0
 17 18  4  0  0  0
 17 22  4  0  0  0
 18 19  4  0  0  0
 19 20  4  0  0  0
 20 21  4  0  0  0
 21 22  4  0  0  0
 23 29  1  0  0  0
 23 32  2  0  0  0
 24 25  4  0  0  0
  1 33  1  0  0  0
  2 34  1  0  0  0
  4 35  1  0  0  0
  7 36  1  0  0  0
  7 37  1  0  0  0
  7 38  1  0  0  0
  8 39  1  0  0  0
  8 40  1  0  0  0
 10 41  1  0  0  0
 10 42  1  0  0  0
 10 43  1  0  0  0
 11 44  1  0  0  0
 15 45  1  0  0  0
 15 46  1  0  0  0
 16 47  1  0  0  0
 18 48  1  0  0  0
 19 49  1  0  0  0
 20 50  1  0  0  0
 21 51  1  0  0  0
 22 52  1  0  0  0
 26 53  1  0  0  0
 29 54  1  0  0  0
 29 55  1  0  0  0
 31 56  1  0  0  0
M  END
$$$$
