4pox_ligand
  -I-interpret- 

 40 39  0  0  0  0  0  0  0  0999 V2000
   16.4780   -8.0390   -1.8300 O   0  0  0  0  0
   18.8520   -8.1920    2.1600 C   0  0  0  0  0
   20.2230   -7.7250    1.7570 C   0  0  0  0  0
   20.6970   -7.8500    0.3400 C   0  0  0  0  0
   20.2080   -6.8420   -0.6800 C   0  0  0  0  0
   17.8570   -8.1020    1.3890 O   0  0  0  0  0
   18.6870   -8.6660    3.3170 O   0  0  0  0  0
   20.4380   -5.4360   -0.2290 C   0  0  0  0  0
   19.4970   -4.7840    0.2990 O   0  0  0  0  0
   21.5780   -4.8930   -0.3750 O   0  0  0  0  0
   18.8220   -7.1390   -1.0510 N   0  3  0  0  0
   18.0560   -6.2410   -1.9570 C   0  0  0  0  0
   16.6860   -6.8650   -2.2220 C   0  0  0  0  0
   15.7980   -6.2110   -2.8260 O   0  0  0  0  0
   18.7280   -5.8470   -3.2660 C   0  0  0  0  0
   19.4300   -6.9430   -4.0080 C   0  0  0  0  0
   19.3870   -6.9730   -5.4960 C   0  0  0  0  0
   20.1390   -8.0860   -6.0430 N   0  0  0  0  0
   20.9480   -7.9680   -7.2400 C   0  0  0  0  0
   21.6010   -9.0230   -7.6460 N   0  0  0  0  0
   21.0330   -6.8670   -7.9160 N   0  0  0  0  0
   20.8976   -8.3709    2.3189 H   0  0  0  0  0
   20.1978   -6.6496    1.9330 H   0  0  0  0  0
   20.3141   -8.8108   -0.0039 H   0  0  0  0  0
   21.7763   -7.7052    0.3876 H   0  0  0  0  0
   20.8000   -6.9339   -1.5906 H   0  0  0  0  0
   18.1360   -7.7260    0.5509 H   0  0  0  0  0
   22.1780   -5.5176   -0.7890 H   0  0  0  0  0
   18.3149   -7.0868   -0.1675 H   0  0  0  0  0
   18.8893   -8.0135   -1.5717 H   0  0  0  0  0
   17.9809   -5.2934   -1.4237 H   0  0  0  0  0
   16.1372   -5.3402   -3.0457 H   0  0  0  0  0
   19.4946   -5.1171   -3.0059 H   0  0  0  0  0
   17.9315   -5.4975   -3.9229 H   0  0  0  0  0
   19.9701   -7.7155   -3.4606 H   0  0  0  0  0
   18.8523   -6.2431   -6.1038 H   0  0  0  0  0
   20.0970   -8.9870   -5.5668 H   0  0  0  0  0
   22.1724   -8.9758   -8.4896 H   0  0  0  0  0
   21.5398   -9.8945   -7.1196 H   0  0  0  0  0
   20.5190   -6.0404   -7.6112 H   0  0  0  0  0
 13  1  2  0  0  0
  3  2  1  0  0  0
  2  6  1  0  0  0
  2  7  2  0  0  0
  4  3  1  0  0  0
  5  4  1  0  0  0
  5  8  1  0  0  0
 11  5  1  0  0  0
  8  9  2  0  0  0
  8 10  1  0  0  0
 12 11  1  0  0  0
 12 13  1  0  0  0
 12 15  1  0  0  0
 13 14  1  0  0  0
 15 16  1  0  0  0
 16 17  2  0  0  0
 17 18  1  0  0  0
 18 19  1  0  0  0
 19 20  1  0  0  0
 19 21  2  0  0  0
  3 22  1  0  0  0
  3 23  1  0  0  0
  4 24  1  0  0  0
  4 25  1  0  0  0
  5 26  1  0  0  0
  6 27  1  0  0  0
 10 28  1  0  0  0
 11 29  1  0  0  0
 11 30  1  0  0  0
 12 31  1  0  0  0
 14 32  1  0  0  0
 15 33  1  0  0  0
 15 34  1  0  0  0
 16 35  1  0  0  0
 17 36  1  0  0  0
 18 37  1  0  0  0
 20 38  1  0  0  0
 20 39  1  0  0  0
 21 40  1  0  0  0
M  END
$$$$
