4pji_ligand
  -I-interpret- 

 24 25  0  0  0  0  0  0  0  0999 V2000
  217.0140   67.0110  165.4770 C   0  0  0  0  0
  215.9170   70.1610  164.0780 C   0  0  0  0  0
  222.2890   65.3190  167.2850 C   0  0  0  0  0
  217.0700   70.9200  164.2110 C   0  0  0  0  0
  214.6750   70.7050  163.4470 C   0  0  0  0  0
  220.8900   65.5520  166.8030 C   0  0  0  0  0
  219.3640   68.6090  165.6430 N   0  0  0  0  0
  220.5760   66.8740  166.5530 N   0  0  0  0  0
  218.2070   66.5770  166.0090 N   0  0  0  0  0
  220.1220   64.6210  166.6000 O   0  0  0  0  0
  219.3730   67.2790  166.1240 C   0  0  0  0  0
  218.2230   69.1440  165.0930 C   0  0  0  0  0
  218.2190   70.4300  164.6970 N   0  0  0  0  0
  215.8910   68.8750  164.4660 N   0  0  0  0  0
  217.0200   68.3600  164.9810 C   0  0  0  0  0
  216.0280   66.2800  165.4780 O   0  0  0  0  0
  222.2600   64.8047  168.2456 H   0  0  0  0  0
  222.8246   64.7066  166.5596 H   0  0  0  0  0
  222.7968   66.2767  167.3993 H   0  0  0  0  0
  217.0404   71.9659  163.9055 H   0  0  0  0  0
  214.3314   71.5714  164.0121 H   0  0  0  0  0
  214.8904   71.0013  162.4204 H   0  0  0  0  0
  213.9012   69.9374  163.4502 H   0  0  0  0  0
  220.2100   69.1754  165.7046 H   0  0  0  0  0
  9  1  1  0  0  0
  1 15  1  0  0  0
  1 16  2  0  0  0
  4  2  4  0  0  0
  2  5  1  0  0  0
  2 14  4  0  0  0
  6  3  1  0  0  0
 13  4  4  0  0  0
  8  6  1  0  0  0
  6 10  2  0  0  0
  7 11  1  0  0  0
 12  7  1  0  0  0
 11  8  4  0  0  0
 11  9  4  0  0  0
 12 13  4  0  0  0
 12 15  4  0  0  0
 14 15  4  0  0  0
  3 17  1  0  0  0
  3 18  1  0  0  0
  3 19  1  0  0  0
  4 20  1  0  0  0
  5 21  1  0  0  0
  5 22  1  0  0  0
  5 23  1  0  0  0
  7 24  1  0  0  0
M  END
$$$$
