### 
### Created by X-TOOL on Mon Sep 10 21:13:20 2018
### 

@<TRIPOS>MOLECULE
2mpm_ligand
  247   249     1     0     0
SMALL
GAST_HUCK


@<TRIPOS>ATOM
      1 N         -13.4970    8.9000   13.0690 N.4       1 VAL         0.2381
      2 CA        -12.8020    8.9450   14.3880 C.3       1 VAL         0.0673
      3 C         -11.3360    9.3050   14.1750 C.2       1 VAL         0.2270
      4 O         -10.8000    9.1440   13.0790 O.2       1 VAL        -0.3907
      5 CB        -12.9120    7.5790   15.0660 C.3       1 VAL         0.0139
      6 CG1       -14.3860    7.1950   15.2070 C.3       1 VAL        -0.0553
      7 CG2       -12.1930    6.5300   14.2170 C.3       1 VAL        -0.0553
      8 N         -10.6920    9.7930   15.2310 N.am      1 GLU        -0.2609
      9 CA         -9.2860   10.1710   15.1480 C.3       1 GLU         0.1326
     10 C          -9.0920   11.2650   14.0970 C.2       1 GLU         0.2041
     11 O          -9.7970   12.2740   14.1060 O.2       1 GLU        -0.3944
     12 CB         -8.4380    8.9410   14.7960 C.3       1 GLU        -0.0008
     13 CG         -6.9750    9.1860   15.1840 C.3       1 GLU         0.0044
     14 CD         -6.8000    9.0290   16.6920 C.2       1 GLU         0.0350
     15 OE1        -6.9350    7.9150   17.1700 O.co2     1 GLU        -0.5690
     16 OE2        -6.5340   10.0250   17.3450 O.co2     1 GLU        -0.5690
     17 N          -8.1360   11.0610   13.1960 N.am      1 THR        -0.2613
     18 CA         -7.8650   12.0390   12.1490 C.3       1 THR         0.1565
     19 C          -7.0720   11.4010   11.0130 C.2       1 THR         0.2066
     20 O          -5.8420   11.4470   11.0010 O.2       1 THR        -0.3943
     21 CB         -7.0780   13.2180   12.7260 C.3       1 THR         0.0924
     22 OG1        -7.7590   13.7280   13.8640 O.3       1 THR        -0.3874
     23 CG2        -6.9520   14.3160   11.6690 C.3       1 THR        -0.0346
     24 N          -7.7840   10.8090   10.0600 N.am      1 PHE        -0.2619
     25 CA         -7.1350   10.1660    8.9230 C.3       1 PHE         0.1404
     26 C          -6.5970   11.2160    7.9540 C.2       1 PHE         0.2058
     27 O          -7.0760   11.3350    6.8260 O.2       1 PHE        -0.3942
     28 CB         -8.1330    9.2520    8.1970 C.3       1 PHE         0.0214
     29 CG         -8.3180    7.9650    8.9780 C.ar      1 PHE        -0.0386
     30 CD1        -8.8690    8.0030   10.2660 C.ar      1 PHE        -0.0601
     31 CD2        -7.9410    6.7350    8.4150 C.ar      1 PHE        -0.0601
     32 CE1        -9.0410    6.8170   10.9910 C.ar      1 PHE        -0.0686
     33 CE2        -8.1150    5.5510    9.1410 C.ar      1 PHE        -0.0686
     34 CZ         -8.6640    5.5920   10.4280 C.ar      1 PHE        -0.0687
     35 N          -5.6010   11.9750    8.4000 N.am      1 GLY        -0.2663
     36 CA         -5.0070   13.0100    7.5620 C.3       1 GLY         0.1201
     37 C          -4.2590   14.0380    8.4060 C.2       1 GLY         0.2008
     38 O          -4.8630   14.7690    9.1900 O.2       1 GLY        -0.3947
     39 N          -2.9410   14.0870    8.2380 N.am      1 THR        -0.2616
     40 CA         -2.1180   15.0310    8.9880 C.3       1 THR         0.1565
     41 C          -0.7140   15.1060    8.3950 C.2       1 THR         0.2065
     42 O          -0.3010   14.2270    7.6400 O.2       1 THR        -0.3943
     43 CB         -2.0330   14.6000   10.4550 C.3       1 THR         0.0924
     44 OG1        -3.3440   14.4510   10.9800 O.3       1 THR        -0.3874
     45 CG2        -1.2740   15.6560   11.2630 C.3       1 THR        -0.0346
     46 N           0.0140   16.1640    8.7400 N.am      1 THR        -0.2613
     47 CA          1.3710   16.3450    8.2340 C.3       1 THR         0.1565
     48 C           2.3110   15.3010    8.8280 C.2       1 THR         0.2065
     49 O           2.0330   14.7290    9.8830 O.2       1 THR        -0.3943
     50 CB          1.8750   17.7470    8.5850 C.3       1 THR         0.0924
     51 OG1         1.8520   17.9170    9.9940 O.3       1 THR        -0.3874
     52 CG2         0.9760   18.7950    7.9270 C.3       1 THR        -0.0346
     53 N           3.4240   15.0570    8.1440 N.am      1 SER        -0.2615
     54 CA          4.4010   14.0790    8.6100 C.3       1 SER         0.1539
     55 C           3.7360   12.7280    8.8500 C.2       1 SER         0.2063
     56 O           2.5100   12.6290    8.8990 O.2       1 SER        -0.3943
     57 CB          5.0510   14.5680    9.9050 C.3       1 SER         0.0843
     58 OG          5.7760   13.4990   10.4980 O.3       1 SER        -0.3903
     59 N           4.5520   11.6890    9.0040 N.am      1 TYS        -0.2621
     60 CA          4.0290   10.3460    9.2410 C.3       1 TYS         0.1390
     61 CB          3.5550    9.7300    7.9220 C.3       1 TYS         0.0163
     62 CG          3.1440    8.2890    8.1460 C.ar      1 TYS        -0.0493
     63 CD1         3.8110    7.2570    7.4720 C.ar      1 TYS        -0.0684
     64 CD2         2.0990    7.9850    9.0290 C.ar      1 TYS        -0.0684
     65 CE1         3.4330    5.9240    7.6830 C.ar      1 TYS        -0.0372
     66 CE2         1.7230    6.6530    9.2370 C.ar      1 TYS        -0.0372
     67 CZ          2.3900    5.6230    8.5650 C.ar      1 TYS         0.1129
     68 OH          2.0200    4.3130    8.7720 O.3       1 TYS        -0.2030
     69 S           0.6150    3.8380    8.3730 S.o2      1 TYS        -0.0526
     70 O1          0.4880    3.8550    6.8880 O.co2     1 TYS        -0.4580
     71 O2          0.3970    2.4520    8.8750 O.co2     1 TYS        -0.4580
     72 O3         -0.4040    4.7480    8.9690 O.co2     1 TYS        -0.4580
     73 C           5.0970    9.4620    9.8870 C.2       1 TYS         0.2058
     74 O           4.8350    8.3130   10.2410 O.2       1 TYS        -0.3942
     75 N           6.2960   10.0190   10.0540 N.am      1 TYS        -0.2620
     76 CA          7.4020    9.2920   10.6790 C.3       1 TYS         0.1390
     77 CB          8.2260    8.5370    9.6180 C.3       1 TYS         0.0163
     78 CG          7.5320    7.2440    9.2300 C.ar      1 TYS        -0.0493
     79 CD1         7.0910    7.0480    7.9130 C.ar      1 TYS        -0.0684
     80 CD2         7.3400    6.2380   10.1860 C.ar      1 TYS        -0.0684
     81 CE1         6.4600    5.8500    7.5560 C.ar      1 TYS        -0.0372
     82 CE2         6.7060    5.0410    9.8270 C.ar      1 TYS        -0.0372
     83 CZ          6.2650    4.8490    8.5130 C.ar      1 TYS         0.1129
     84 OH          5.6450    3.6710    8.1620 O.3       1 TYS        -0.2030
     85 S           4.6000    3.0440    9.0960 S.o2      1 TYS        -0.0526
     86 O1          4.0390    4.0960    9.9900 O.co2     1 TYS        -0.4580
     87 O2          3.5040    2.4430    8.2850 O.co2     1 TYS        -0.4580
     88 O3          5.2450    1.9840    9.9210 O.co2     1 TYS        -0.4580
     89 C           8.3010   10.2750   11.4280 C.2       1 TYS         0.2058
     90 O           9.5280   10.1990   11.3500 O.2       1 TYS        -0.3942
     91 N           7.6780   11.2000   12.1520 N.am      1 ASP        -0.2620
     92 CA          8.4240   12.1980   12.9100 C.3       1 ASP         0.1423
     93 C           9.5760   11.5490   13.6690 C.2       1 ASP         0.2057
     94 O          10.6000   12.1830   13.9240 O.2       1 ASP        -0.3943
     95 CB          7.4950   12.9060   13.8980 C.3       1 ASP         0.0406
     96 CG          6.9450   11.9020   14.9060 C.2       1 ASP         0.0393
     97 OD1         6.4020   10.8970   14.4760 O.co2     1 ASP        -0.5688
     98 OD2         7.0750   12.1540   16.0930 O.co2     1 ASP        -0.5688
     99 N           9.4030   10.2820   14.0280 N.am      1 ASP        -0.2621
    100 CA         10.4370    9.5580   14.7580 C.3       1 ASP         0.1423
    101 C          11.6080    9.2250   13.8380 C.2       1 ASP         0.2056
    102 O          12.7560    9.1680   14.2770 O.2       1 ASP        -0.3943
    103 CB          9.8590    8.2650   15.3390 C.3       1 ASP         0.0406
    104 CG          8.8950    8.5910   16.4740 C.2       1 ASP         0.0393
    105 OD1         9.2880    9.3230   17.3680 O.co2     1 ASP        -0.5688
    106 OD2         7.7770    8.1030   16.4340 O.co2     1 ASP        -0.5688
    107 N          11.3050    9.0090   12.5620 N.am      1 VAL        -0.2634
    108 CA         12.3340    8.6820   11.5800 C.3       1 VAL         0.1332
    109 C          13.0200    7.3680   11.9380 C.2       1 VAL         0.2039
    110 O          12.8450    6.3600   11.2520 O.2       1 VAL        -0.3944
    111 CB         13.3730    9.8040   11.5110 C.3       1 VAL        -0.0063
    112 CG1        14.2160    9.6460   10.2440 C.3       1 VAL        -0.0584
    113 CG2        12.6580   11.1570   11.4810 C.3       1 VAL        -0.0584
    114 N          13.7990    7.3810   13.0170 N.am      1 GLY        -0.2664
    115 CA         14.5020    6.1790   13.4560 C.3       1 GLY         0.1201
    116 C          13.5740    4.9680   13.4250 C.2       1 GLY         0.2007
    117 O          14.0250    3.8240   13.4800 O.2       1 GLY        -0.3947
    118 N          12.2740    5.2330   13.3310 N.am      1 LEU        -0.2640
    119 CA         11.2740    4.1700   13.2860 C.3       1 LEU         0.1312
    120 C          11.7560    3.0270   12.3930 C.2       1 LEU         0.2033
    121 O          11.6210    1.8540   12.7420 O.2       1 LEU        -0.3944
    122 CB          9.9510    4.7580   12.7610 C.3       1 LEU        -0.0101
    123 CG          8.8540    3.6790   12.5980 C.3       1 LEU        -0.0425
    124 CD1         9.1050    2.7920   11.3550 C.3       1 LEU        -0.0625
    125 CD2         8.7770    2.8130   13.8650 C.3       1 LEU        -0.0625
    126 N          12.3330    3.3800   11.2450 N.am      1 LEU        -0.2695
    127 CA         12.8470    2.3800   10.3050 C.3       1 LEU         0.0946
    128 C          13.5140    1.2250   11.0560 C.2       1 LEU         0.0601
    129 O          14.5930    1.4340   11.5870 O.co2     1 LEU        -0.5666
    130 CB         13.8590    3.0430    9.3510 C.3       1 LEU        -0.0156
    131 CG         13.9430    2.2880    8.0070 C.3       1 LEU        -0.0431
    132 CD1        14.1610    0.7910    8.2530 C.3       1 LEU        -0.0625
    133 CD2        12.6580    2.4980    7.1800 C.3       1 LEU        -0.0625
    134 OXT        12.9340    0.1510   11.0870 O.co2     1 LEU        -0.5666
    135 H         -13.4254    9.7999   12.6206 H         1 VAL         0.2015
    136 H         -14.4685    8.6706   13.2088 H         1 VAL         0.2015
    137 H         -13.0667    8.1991   12.4862 H         1 VAL         0.2015
    138 H         -13.2749    9.7067   15.0254 H         1 VAL         0.1101
    139 H         -12.4482    7.6257   16.0623 H         1 VAL         0.0376
    140 H         -14.4638    6.2122   15.6949 H         1 VAL         0.0236
    141 H         -14.8495    7.1474   14.2106 H         1 VAL         0.0236
    142 H         -14.9047    7.9492   15.8170 H         1 VAL         0.0236
    143 H         -11.1328    6.8049   14.1148 H         1 VAL         0.0236
    144 H         -12.6573    6.4834   13.2209 H         1 VAL         0.0236
    145 H         -12.2715    5.5471   14.7045 H         1 VAL         0.0236
    146 H         -11.1801    9.9027   16.0969 H         1 GLU         0.1885
    147 H          -8.9632   10.5580   16.1258 H         1 GLU         0.0801
    148 H          -8.5014    8.7519   13.7142 H         1 GLU         0.0330
    149 H          -8.8189    8.0666   15.3440 H         1 GLU         0.0330
    150 H          -6.6857   10.2052   14.8882 H         1 GLU         0.0433
    151 H          -6.3340    8.4578   14.6655 H         1 GLU         0.0433
    152 H          -7.5932   10.2221   13.2370 H         1 THR         0.1884
    153 H          -8.8222   12.4077   11.7517 H         1 THR         0.0826
    154 H          -6.0743   12.8786   13.0217 H         1 THR         0.0639
    155 H          -7.8338   13.0445   14.5196 H         1 THR         0.2101
    156 H          -6.3862   15.1625   12.0853 H         1 THR         0.0257
    157 H          -7.9551   14.6561   11.3721 H         1 THR         0.0257
    158 H          -6.4240   13.9193   10.7893 H         1 THR         0.0257
    159 H          -8.7820   10.8042   10.1234 H         1 PHE         0.1885
    160 H          -6.2955    9.5577    9.2906 H         1 PHE         0.0823
    161 H          -7.7490    9.0173    7.1933 H         1 PHE         0.0474
    162 H          -9.1010    9.7669    8.1082 H         1 PHE         0.0474
    163 H          -9.1624    8.9513   10.7016 H         1 PHE         0.0557
    164 H          -7.5154    6.7025    7.4186 H         1 PHE         0.0557
    165 H          -9.4659    6.8477   11.9878 H         1 PHE         0.0599
    166 H          -7.8244    4.6015    8.7062 H         1 PHE         0.0599
    167 H          -8.7974    4.6742   10.9893 H         1 PHE         0.0559
    168 H          -5.2529   11.8337    9.3267 H         1 GLY         0.1881
    169 H          -5.8041   13.5184    6.9997 H         1 GLY         0.0763
    170 H          -4.3028   12.5422    6.8582 H         1 GLY         0.0763
    171 H          -2.5057   13.4660    7.5862 H         1 THR         0.1884
    172 H          -2.5814   16.0271    8.9335 H         1 THR         0.0826
    173 H          -1.5014   13.6393   10.5222 H         1 THR         0.0639
    174 H          -3.8104   13.7904   10.4814 H         1 THR         0.2101
    175 H          -1.2163   15.3409   12.3153 H         1 THR         0.0257
    176 H          -1.8028   16.6183   11.1969 H         1 THR         0.0257
    177 H          -0.2576   15.7675   10.8574 H         1 THR         0.0257
    178 H          -0.3753   16.8478    9.3572 H         1 THR         0.1884
    179 H           1.3594   16.2317    7.1399 H         1 THR         0.0826
    180 H           2.9051   17.8679    8.2187 H         1 THR         0.0639
    181 H           2.1648   18.7871   10.2120 H         1 THR         0.2101
    182 H           1.3400   19.8016    8.1806 H         1 THR         0.0257
    183 H          -0.0547   18.6752    8.2920 H         1 THR         0.0257
    184 H           0.9962   18.6621    6.8353 H         1 THR         0.0257
    185 H           3.5952   15.5536    7.2931 H         1 SER         0.1884
    186 H           5.1789   13.9610    7.8412 H         1 SER         0.0823
    187 H           4.2715   14.9137   10.5999 H         1 SER         0.0606
    188 H           5.7372   15.3981    9.6813 H         1 SER         0.0606
    189 H           6.1808   13.8004   11.3028 H         1 SER         0.2097
    190 H           5.5409   11.8298    8.9567 H         1 TYS         0.1885
    191 H           3.1711   10.4174    9.9258 H         1 TYS         0.0821
    192 H           4.3729    9.7663    7.1874 H         1 TYS         0.0453
    193 H           2.6947   10.2999    7.5413 H         1 TYS         0.0453
    194 H           4.6189    7.4897    6.7878 H         1 TYS         0.0530
    195 H           1.5817    8.7818    9.5511 H         1 TYS         0.0530
    196 H           3.9493    5.1257    7.1623 H         1 TYS         0.0526
    197 H           0.9140    6.4191    9.9196 H         1 TYS         0.0526
    198 H           6.4440   10.9582    9.7442 H         1 TYS         0.1885
    199 H           6.9910    8.5641   11.3940 H         1 TYS         0.0821
    200 H           9.2201    8.3057   10.0283 H         1 TYS         0.0453
    201 H           8.3360    9.1710    8.7259 H         1 TYS         0.0453
    202 H           7.2387    7.8244    7.1711 H         1 TYS         0.0530
    203 H           7.6821    6.3857   11.2040 H         1 TYS         0.0530
    204 H           6.1224    5.6984    6.5371 H         1 TYS         0.0526
    205 H           6.5571    4.2635   10.5675 H         1 TYS         0.0526
    206 H           6.6784   11.2116   12.1773 H         1 ASP         0.1884
    207 H           8.8339   12.9404   12.2094 H         1 ASP         0.0819
    208 H           6.6601   13.3652   13.3484 H         1 ASP         0.0478
    209 H           8.0569   13.6871   14.4311 H         1 ASP         0.0478
    210 H           8.5493    9.8168   13.7937 H         1 ASP         0.1884
    211 H          10.7993   10.1907   15.5816 H         1 ASP         0.0819
    212 H          10.6782    7.6403   15.7245 H         1 ASP         0.0478
    213 H           9.3216    7.7189   14.5498 H         1 ASP         0.0478
    214 H          10.3511    9.0719   12.2684 H         1 VAL         0.1883
    215 H          11.8588    8.5761   10.5936 H         1 VAL         0.0802
    216 H          14.0263    9.7535   12.3945 H         1 VAL         0.0343
    217 H          14.9617   10.4533   10.1967 H         1 VAL         0.0234
    218 H          13.5631    9.6978    9.3603 H         1 VAL         0.0234
    219 H          14.7294    8.6734   10.2641 H         1 VAL         0.0234
    220 H          12.0516   11.2715   12.3916 H         1 VAL         0.0234
    221 H          12.0052   11.2073   10.5971 H         1 VAL         0.0234
    222 H          13.4033   11.9646   11.4329 H         1 VAL         0.0234
    223 H          13.9047    8.2291   13.5363 H         1 GLY         0.1881
    224 H          14.8657    6.3286   14.4833 H         1 GLY         0.0763
    225 H          15.3562    5.9961   12.7875 H         1 GLY         0.0763
    226 H          11.9734    6.1859   13.2900 H         1 LEU         0.1883
    227 H          11.1149    3.7808   14.3025 H         1 LEU         0.0800
    228 H          10.1352    5.2261   11.7828 H         1 LEU         0.0315
    229 H           9.5957    5.5195   13.4708 H         1 LEU         0.0315
    230 H           7.8882    4.1885   12.4653 H         1 LEU         0.0298
    231 H           8.3064    2.0399   11.2740 H         1 LEU         0.0232
    232 H          10.0764    2.2859   11.4558 H         1 LEU         0.0232
    233 H           9.1105    3.4197   10.4517 H         1 LEU         0.0232
    234 H           8.5985    3.4568   14.7389 H         1 LEU         0.0232
    235 H           9.7249    2.2707   13.9967 H         1 LEU         0.0232
    236 H           7.9524    2.0916   13.7666 H         1 LEU         0.0232
    237 H          12.4173    4.3506   11.0194 H         1 LEU         0.1875
    238 H          12.0080    1.9813    9.7159 H         1 LEU         0.0726
    239 H          14.8517    3.0418    9.8249 H         1 LEU         0.0308
    240 H          13.5450    4.0798    9.1602 H         1 LEU         0.0308
    241 H          14.7973    2.6815    7.4366 H         1 LEU         0.0297
    242 H          14.2189    0.2656    7.2884 H         1 LEU         0.0232
    243 H          13.3213    0.3896    8.8393 H         1 LEU         0.0232
    244 H          15.0993    0.6434    8.8078 H         1 LEU         0.0232
    245 H          12.5057    3.5734    7.0060 H         1 LEU         0.0232
    246 H          11.7972    2.0901    7.7300 H         1 LEU         0.0232
    247 H          12.7548    1.9804    6.2142 H         1 LEU         0.0232
@<TRIPOS>BOND
     1    1    2 1  
     2    2    3 1  
     3    2    5 1  
     4    3    4 2  
     5    3    8 am 
     6    5    6 1  
     7    5    7 1  
     8    8    9 1  
     9    9   10 1  
    10    9   12 1  
    11   10   11 2  
    12   10   17 am 
    13   12   13 1  
    14   13   14 1  
    15   14   15 ar 
    16   14   16 ar 
    17   17   18 1  
    18   18   19 1  
    19   18   21 1  
    20   19   20 2  
    21   19   24 am 
    22   21   22 1  
    23   21   23 1  
    24   24   25 1  
    25   25   26 1  
    26   25   28 1  
    27   26   27 2  
    28   26   35 am 
    29   28   29 1  
    30   29   30 ar 
    31   29   31 ar 
    32   30   32 ar 
    33   31   33 ar 
    34   32   34 ar 
    35   33   34 ar 
    36   35   36 1  
    37   36   37 1  
    38   37   38 2  
    39   37   39 am 
    40   39   40 1  
    41   40   41 1  
    42   40   43 1  
    43   41   42 2  
    44   41   46 am 
    45   43   44 1  
    46   43   45 1  
    47   46   47 1  
    48   47   48 1  
    49   47   50 1  
    50   48   49 2  
    51   48   53 am 
    52   50   51 1  
    53   50   52 1  
    54   53   54 1  
    55   54   55 1  
    56   54   57 1  
    57   55   56 2  
    58   55   59 am 
    59   57   58 1  
    60   59   60 1  
    61   60   61 1  
    62   60   73 1  
    63   61   62 1  
    64   62   63 ar 
    65   62   64 ar 
    66   63   65 ar 
    67   64   66 ar 
    68   65   67 ar 
    69   66   67 ar 
    70   67   68 1  
    71   68   69 1  
    72   69   70 ar 
    73   69   71 ar 
    74   69   72 ar 
    75   73   74 2  
    76   73   75 am 
    77   75   76 1  
    78   76   77 1  
    79   76   89 1  
    80   77   78 1  
    81   78   79 ar 
    82   78   80 ar 
    83   79   81 ar 
    84   80   82 ar 
    85   81   83 ar 
    86   82   83 ar 
    87   83   84 1  
    88   84   85 1  
    89   85   86 ar 
    90   85   87 ar 
    91   85   88 ar 
    92   89   90 2  
    93   89   91 am 
    94   91   92 1  
    95   92   93 1  
    96   92   95 1  
    97   93   94 2  
    98   93   99 am 
    99   95   96 1  
   100   96   97 ar 
   101   96   98 ar 
   102   99  100 1  
   103  100  101 1  
   104  100  103 1  
   105  101  102 2  
   106  101  107 am 
   107  103  104 1  
   108  104  105 ar 
   109  104  106 ar 
   110  107  108 1  
   111  108  109 1  
   112  108  111 1  
   113  109  110 2  
   114  109  114 am 
   115  111  112 1  
   116  111  113 1  
   117  114  115 1  
   118  115  116 1  
   119  116  117 2  
   120  116  118 am 
   121  118  119 1  
   122  119  120 1  
   123  119  122 1  
   124  120  121 2  
   125  120  126 am 
   126  122  123 1  
   127  123  124 1  
   128  123  125 1  
   129  126  127 1  
   130  127  128 1  
   131  127  130 1  
   132  128  129 ar 
   133  128  134 ar 
   134  130  131 1  
   135  131  132 1  
   136  131  133 1  
   137    1  135 1  
   138    1  136 1  
   139    1  137 1  
   140    2  138 1  
   141    5  139 1  
   142    6  140 1  
   143    6  141 1  
   144    6  142 1  
   145    7  143 1  
   146    7  144 1  
   147    7  145 1  
   148    8  146 1  
   149    9  147 1  
   150   12  148 1  
   151   12  149 1  
   152   13  150 1  
   153   13  151 1  
   154   17  152 1  
   155   18  153 1  
   156   21  154 1  
   157   22  155 1  
   158   23  156 1  
   159   23  157 1  
   160   23  158 1  
   161   24  159 1  
   162   25  160 1  
   163   28  161 1  
   164   28  162 1  
   165   30  163 1  
   166   31  164 1  
   167   32  165 1  
   168   33  166 1  
   169   34  167 1  
   170   35  168 1  
   171   36  169 1  
   172   36  170 1  
   173   39  171 1  
   174   40  172 1  
   175   43  173 1  
   176   44  174 1  
   177   45  175 1  
   178   45  176 1  
   179   45  177 1  
   180   46  178 1  
   181   47  179 1  
   182   50  180 1  
   183   51  181 1  
   184   52  182 1  
   185   52  183 1  
   186   52  184 1  
   187   53  185 1  
   188   54  186 1  
   189   57  187 1  
   190   57  188 1  
   191   58  189 1  
   192   59  190 1  
   193   60  191 1  
   194   61  192 1  
   195   61  193 1  
   196   63  194 1  
   197   64  195 1  
   198   65  196 1  
   199   66  197 1  
   200   75  198 1  
   201   76  199 1  
   202   77  200 1  
   203   77  201 1  
   204   79  202 1  
   205   80  203 1  
   206   81  204 1  
   207   82  205 1  
   208   91  206 1  
   209   92  207 1  
   210   95  208 1  
   211   95  209 1  
   212   99  210 1  
   213  100  211 1  
   214  103  212 1  
   215  103  213 1  
   216  107  214 1  
   217  108  215 1  
   218  111  216 1  
   219  112  217 1  
   220  112  218 1  
   221  112  219 1  
   222  113  220 1  
   223  113  221 1  
   224  113  222 1  
   225  114  223 1  
   226  115  224 1  
   227  115  225 1  
   228  118  226 1  
   229  119  227 1  
   230  122  228 1  
   231  122  229 1  
   232  123  230 1  
   233  124  231 1  
   234  124  232 1  
   235  124  233 1  
   236  125  234 1  
   237  125  235 1  
   238  125  236 1  
   239  126  237 1  
   240  127  238 1  
   241  130  239 1  
   242  130  240 1  
   243  131  241 1  
   244  132  242 1  
   245  132  243 1  
   246  132  244 1  
   247  133  245 1  
   248  133  246 1  
   249  133  247 1  
@<TRIPOS>SUBSTRUCTURE
     1 VAL         1

