5e89_ligand
  -I-interpret- 

 75 80  0  0  0  0  0  0  0  0999 V2000
   20.1350   -8.9640   -1.1330 C   0  0  0  0  0
   18.6600   -9.2400   -1.0180 C   0  0  0  0  0
   17.9000   -7.9980   -1.3930 C   0  0  0  0  0
   18.4200   -6.8320   -0.5630 C   0  0  0  0  0
   19.9150   -6.6800   -0.7500 C   0  0  0  0  0
   20.4570   -5.5250    0.0690 C   0  0  0  0  0
   14.3160   -8.1250   -1.8620 N   0  0  0  0  0
   27.4460  -11.1400    4.1170 C   0  0  0  0  0
   26.7750  -12.2520    4.5750 C   0  0  0  0  0
   27.0810  -12.8110    5.7990 C   0  0  0  0  0
   22.5870   -9.9570   -0.9070 C   0  0  0  0  0
   20.9370  -10.3910   -0.5520 S   0  0  0  0  0
   20.5290   -7.8830   -0.3320 O   0  0  0  0  0
   23.0400  -10.7940   -1.9730 O   0  0  0  0  0
   24.3670  -10.5210   -2.3450 C   0  0  0  0  0
   24.7720  -11.4040   -3.5260 C   0  0  0  0  0
   21.8370   -5.4190   -0.2000 O   0  0  0  0  0
   24.1550  -10.8450   -4.6760 O   0  0  0  0  0
   25.3340  -10.7410   -1.2050 C   0  0  0  0  0
   18.1130   -7.0370    0.8130 O   0  0  0  0  0
   25.4880  -12.1230   -0.8720 O   0  0  0  0  0
   24.8510   -9.9500   -0.0180 C   0  0  0  0  0
   23.4090  -10.2580    0.3230 C   0  0  0  0  0
   23.0010   -9.4560    1.4310 O   0  0  0  0  0
   18.3020  -10.2790   -1.9250 O   0  0  0  0  0
   25.7480  -10.1660    1.1110 N   0  0  0  0  0
   25.8280  -10.9500    2.1560 C   0  0  0  0  0
   26.9870  -10.5810    2.8240 C   0  0  0  0  0
   27.5630   -9.5550    2.1910 N   0  0  0  0  0
   26.7980   -9.2780    1.0820 N   0  0  0  0  0
   16.4540   -8.1500   -1.1880 N   0  0  0  0  0
   15.6330   -7.9540   -2.3000 N   0  0  0  0  0
   14.4180   -8.4060   -0.5500 C   0  0  0  0  0
   15.7320   -8.4280   -0.1380 C   0  0  0  0  0
   28.0520  -12.2230    6.5890 C   0  0  0  0  0
   28.6970  -11.0670    6.1570 C   0  0  0  0  0
   28.3830  -10.5030    4.9240 C   0  0  0  0  0
   13.1490   -8.6480    0.2020 C   0  0  0  0  0
   11.9830   -9.0100   -0.4640 C   0  0  0  0  0
   10.8150   -9.2330    0.2520 C   0  0  0  0  0
   10.8140   -9.1050    1.6370 C   0  0  0  0  0
   11.9680   -8.7660    2.2880 C   0  0  0  0  0
   13.1340   -8.5070    1.5890 C   0  0  0  0  0
   26.3790  -13.9440    6.0710 F   0  0  0  0  0
   11.9080   -8.6460    3.6260 F   0  0  0  0  0
   20.3844   -8.7183   -2.1652 H   0  0  0  0  0
   18.4229   -9.5375    0.0035 H   0  0  0  0  0
   18.0568   -7.8116   -2.4554 H   0  0  0  0  0
   17.9332   -5.9166   -0.8993 H   0  0  0  0  0
   20.1287   -6.4729   -1.7986 H   0  0  0  0  0
   20.2902   -5.7023    1.1315 H   0  0  0  0  0
   19.9466   -4.5993   -0.1967 H   0  0  0  0  0
   25.9911  -12.6969    3.9620 H   0  0  0  0  0
   22.6737   -8.9063   -1.1838 H   0  0  0  0  0
   24.4125   -9.4694   -2.6281 H   0  0  0  0  0
   24.4506  -12.4341   -3.3719 H   0  0  0  0  0
   25.8558  -11.4325   -3.6390 H   0  0  0  0  0
   22.2060   -4.6926    0.3078 H   0  0  0  0  0
   24.3826  -11.3698   -5.4469 H   0  0  0  0  0
   26.3217  -10.3986   -1.5137 H   0  0  0  0  0
   17.1634   -7.1317    0.9172 H   0  0  0  0  0
   26.1096  -12.2086   -0.1455 H   0  0  0  0  0
   24.8714   -8.8906   -0.2735 H   0  0  0  0  0
   23.2765  -11.3016    0.6083 H   0  0  0  0  0
   23.5408   -9.6701    2.1955 H   0  0  0  0  0
   18.7803  -11.0797   -1.6975 H   0  0  0  0  0
   25.1268  -11.7335    2.4432 H   0  0  0  0  0
   16.0968   -8.6367    0.8677 H   0  0  0  0  0
   28.3126  -12.6649    7.5507 H   0  0  0  0  0
   29.4529  -10.6007    6.7888 H   0  0  0  0  0
   28.8620   -9.5801    4.5970 H   0  0  0  0  0
   11.9864   -9.1186   -1.5486 H   0  0  0  0  0
    9.8990   -9.5083   -0.2708 H   0  0  0  0  0
    9.8970   -9.2742    2.2014 H   0  0  0  0  0
   14.0340   -8.1951    2.1189 H   0  0  0  0  0
  2  1  1  0  0  0
  1 12  1  0  0  0
  1 13  1  0  0  0
  3  2  1  0  0  0
  2 25  1  0  0  0
  3  4  1  0  0  0
 31  3  1  0  0  0
  4  5  1  0  0  0
  4 20  1  0  0  0
  5  6  1  0  0  0
  5 13  1  0  0  0
  6 17  1  0  0  0
 32  7  4  0  0  0
  7 33  4  0  0  0
  8  9  4  0  0  0
 28  8  1  0  0  0
  8 37  4  0  0  0
  9 10  4  0  0  0
 10 35  4  0  0  0
 10 44  1  0  0  0
 12 11  1  0  0  0
 11 14  1  0  0  0
 11 23  1  0  0  0
 14 15  1  0  0  0
 15 16  1  0  0  0
 15 19  1  0  0  0
 16 18  1  0  0  0
 19 21  1  0  0  0
 22 19  1  0  0  0
 23 22  1  0  0  0
 22 26  1  0  0  0
 23 24  1  0  0  0
 26 27  4  0  0  0
 26 30  4  0  0  0
 27 28  4  0  0  0
 29 28  4  0  0  0
 30 29  4  0  0  0
 31 32  4  0  0  0
 31 34  4  0  0  0
 33 34  4  0  0  0
 33 38  1  0  0  0
 35 36  4  0  0  0
 36 37  4  0  0  0
 38 39  4  0  0  0
 38 43  4  0  0  0
 39 40  4  0  0  0
 40 41  4  0  0  0
 41 42  4  0  0  0
 42 43  4  0  0  0
 42 45  1  0  0  0
  1 46  1  0  0  0
  2 47  1  0  0  0
  3 48  1  0  0  0
  4 49  1  0  0  0
  5 50  1  0  0  0
  6 51  1  0  0  0
  6 52  1  0  0  0
  9 53  1  0  0  0
 11 54  1  0  0  0
 15 55  1  0  0  0
 16 56  1  0  0  0
 16 57  1  0  0  0
 17 58  1  0  0  0
 18 59  1  0  0  0
 19 60  1  0  0  0
 20 61  1  0  0  0
 21 62  1  0  0  0
 22 63  1  0  0  0
 23 64  1  0  0  0
 24 65  1  0  0  0
 25 66  1  0  0  0
 27 67  1  0  0  0
 34 68  1  0  0  0
 35 69  1  0  0  0
 36 70  1  0  0  0
 37 71  1  0  0  0
 39 72  1  0  0  0
 40 73  1  0  0  0
 41 74  1  0  0  0
 43 75  1  0  0  0
M  END
$$$$
