3qxd_ligand
  -I-interpret- 

234235  0  0  0  0  0  0  0  0999 V2000
   39.1210   -0.4340   13.2200 N   0  3  0  0  0
   38.4300   -1.2100   14.2530 C   0  0  0  0  0
   38.4600   -2.7000   13.9220 C   0  0  0  0  0
   37.8390   -3.5000   14.6180 O   0  0  0  0  0
   36.9970   -0.6810   14.1830 C   0  0  0  0  0
   37.0970    0.6520   13.5510 C   0  0  0  0  0
   38.2370    0.5610   12.5890 C   0  0  0  0  0
   39.1880   -3.0510   12.8650 N   0  0  0  0  0
   39.3510   -4.4400   12.4030 C   0  0  0  0  0
   38.0580   -5.1640   11.9920 C   0  0  0  0  0
   37.9550   -5.6580   10.8690 O   0  0  0  0  0
   40.2000   -5.3130   13.3710 C   0  0  0  0  0
   39.4080   -5.7170   14.6090 C   0  0  0  0  0
   40.6880   -6.5520   12.6470 C   0  0  0  0  0
   37.0800   -5.2380   12.8880 N   0  0  0  0  0
   35.8070   -5.8560   12.5360 C   0  0  0  0  0
   34.6860   -4.8160   12.4520 C   0  0  0  0  0
   33.5050   -5.1660   12.3720 O   0  0  0  0  0
   35.4370   -6.9880   13.5090 C   0  0  0  0  0
   34.9550   -6.4830   14.7420 O   0  0  0  0  0
   35.0490   -3.5360   12.4660 N   0  0  0  0  0
   34.0450   -2.4870   12.2960 C   0  0  0  0  0
   34.1810   -1.7290   10.9770 C   0  0  0  0  0
   35.2470   -1.2070   10.6500 O   0  0  0  0  0
   34.0400   -1.5020   13.4700 C   0  0  0  0  0
   32.9750   -0.4120   13.3290 C   0  0  0  0  0
   32.9800    0.5830   14.4870 C   0  0  0  0  0
   34.1770    1.5260   14.4280 C   0  0  0  0  0
   34.3030    2.2360   13.1200 N   0  3  0  0  0
   33.0810   -1.6740   10.2290 N   0  0  0  0  0
   33.0090   -0.8880    9.0020 C   0  0  0  0  0
   33.2730    0.5800    9.2990 C   0  0  0  0  0
   32.7060    1.1470   10.2380 O   0  0  0  0  0
   31.6240   -1.0140    8.3590 C   0  0  0  0  0
   31.2810   -2.3950    7.8450 C   0  0  0  0  0
   32.2000   -2.8350    6.3610 S   0  0  0  0  0
   31.6760   -1.5540    5.2400 C   0  0  0  0  0
   34.1230    1.1970    8.4890 N   0  0  0  0  0
   34.3620    2.6280    8.5960 C   0  0  0  0  0
   33.5260    3.3850    7.5710 C   0  0  0  0  0
   33.4050    2.9670    6.4210 O   0  0  0  0  0
   35.8430    2.9380    8.3980 C   0  0  0  0  0
   36.7160    2.4550    9.5300 C   0  0  0  0  0
   38.1830    2.5350    9.1670 C   0  0  0  0  0
   39.0240    2.0410   10.2480 N   0  0  0  0  0
   40.3350    1.8590   10.1510 C   0  0  0  0  0
   40.9640    2.1260    9.0140 N   0  0  0  0  0
   41.0150    1.4060   11.1930 N   0  0  0  0  0
   32.9540    4.5040    7.9940 N   0  0  0  0  0
   32.1650    5.3420    7.1040 C   0  0  0  0  0
   32.9890    6.5110    6.5870 C   0  0  0  0  0
   33.6470    7.2050    7.3580 O   0  0  0  0  0
   30.9370    5.8740    7.8380 C   0  0  0  0  0
   30.0070    4.8030    8.3670 C   0  0  0  0  0
   28.6940    5.5580    9.3410 S   0  0  0  0  0
   28.6320    7.1650    8.5620 C   0  0  0  0  0
   32.9560    6.7280    5.2780 N   0  0  0  0  0
   33.5520    7.9210    4.7050 C   0  0  0  0  0
   32.6530    9.1170    5.0240 C   0  0  0  0  0
   31.4380    8.9730    5.1490 O   0  0  0  0  0
   33.7270    7.7570    3.2150 C   0  0  0  0  0
   33.2570   10.2920    5.1700 N   0  0  0  0  0
   32.5250   11.4920    5.5560 C   0  0  0  0  0
   32.3900   12.4710    4.3900 C   0  0  0  0  0
   33.3740   12.8130    3.7310 O   0  0  0  0  0
   33.1920   12.1930    6.7610 C   0  0  0  0  0
   33.1140   11.3410    7.9140 O   0  0  0  0  0
   32.4950   13.5100    7.0690 C   0  0  0  0  0
   31.1560   12.9160    4.1240 N   0  0  0  0  0
   30.8960   13.8570    3.0330 C   0  0  0  0  0
   31.4070   15.2560    3.3620 C   0  0  0  0  0
   31.2660   15.7140    4.4970 O   0  0  0  0  0
   29.3700   13.8660    2.9380 C   0  0  0  0  0
   28.9020   13.4710    4.2890 C   0  0  0  0  0
   29.9220   12.5100    4.8190 C   0  0  0  0  0
   31.9960   15.9210    2.3730 N   0  0  0  0  0
   32.4350   17.3000    2.5380 C   0  0  0  0  0
   31.2560   18.2620    2.4120 C   0  0  0  0  0
   30.3420   18.0430    1.6150 O   0  0  0  0  0
   33.5080   17.6500    1.5040 C   0  0  0  0  0
   34.7780   16.7980    1.5490 C   0  0  0  0  0
   35.7760   17.2710    0.5130 C   0  0  0  0  0
   35.3970   16.8320    2.9350 C   0  0  0  0  0
   31.2780   19.3260    3.2030 N   0  0  0  0  0
   30.2460   20.3510    3.1100 C   0  0  0  0  0
   30.5970   21.3590    2.0230 C   0  0  0  0  0
   31.7740   21.6750    1.7990 O   0  0  0  0  0
   30.0560   21.0630    4.4480 C   0  0  0  0  0
   28.9970   22.1700    4.4860 C   0  0  0  0  0
   27.6070   21.6210    4.1790 C   0  0  0  0  0
   29.0100   22.8680    5.8410 C   0  0  0  0  0
   29.5690   21.8430    1.3390 N   0  0  0  0  0
   29.7450   22.8430    0.3000 C   0  0  0  0  0
   29.8040   24.2400    0.9060 C   0  0  0  0  0
   29.3000   24.4670    2.0070 O   0  0  0  0  0
   28.6010   22.7550   -0.7050 C   0  0  0  0  0
   28.5780   21.4560   -1.4850 C   0  0  0  0  0
   27.1610   21.3460   -2.5940 S   0  0  0  0  0
   27.4710   19.7620   -3.3590 C   0  0  0  0  0
   30.4180   25.1710    0.1810 N   0  0  0  0  0
   30.5310   26.5530    0.6340 C   0  0  0  0  0
   29.1740   27.2430    0.7070 C   0  0  0  0  0
   28.3420   27.1120   -0.1950 O   0  0  0  0  0
   31.4670   27.3470   -0.2820 C   0  0  0  0  0
   31.6580   28.8020    0.1420 C   0  0  0  0  0
   32.5520   29.5900   -0.8100 C   0  0  0  0  0
   33.1180   29.0390   -1.7590 O   0  0  0  0  0
   32.6830   30.8890   -0.5540 N   0  0  0  0  0
   28.8968   27.9596    1.7056 O   0  0  0  0  0
   39.4398   -1.0795   12.4975 H   0  0  0  0  0
   39.8954    0.0627   13.6604 H   0  0  0  0  0
   38.8841   -1.1077   15.2386 H   0  0  0  0  0
   36.5454   -0.6201   15.1732 H   0  0  0  0  0
   36.3534   -1.3474   13.6088 H   0  0  0  0  0
   37.2658    1.4317   14.2938 H   0  0  0  0  0
   36.1704    0.9213   13.0440 H   0  0  0  0  0
   37.9226    0.2724   11.5860 H   0  0  0  0  0
   38.7287    1.5196   12.4234 H   0  0  0  0  0
   39.6618   -2.3137   12.3432 H   0  0  0  0  0
   39.9128   -4.3169   11.4771 H   0  0  0  0  0
   41.0508   -4.7164   13.7002 H   0  0  0  0  0
   39.0901   -4.8218   15.1435 H   0  0  0  0  0
   38.5324   -6.2916   14.3071 H   0  0  0  0  0
   40.0371   -6.3254   15.2587 H   0  0  0  0  0
   39.8313   -7.1281   12.2974 H   0  0  0  0  0
   41.3004   -6.2560   11.7953 H   0  0  0  0  0
   41.2820   -7.1598   13.3295 H   0  0  0  0  0
   37.2200   -4.8612   13.8255 H   0  0  0  0  0
   35.9272   -6.2987   11.5472 H   0  0  0  0  0
   36.3323   -7.5777   13.7060 H   0  0  0  0  0
   34.6503   -7.5891   13.0531 H   0  0  0  0  0
   34.7347   -7.2154   15.3223 H   0  0  0  0  0
   36.0294   -3.2862   12.5956 H   0  0  0  0  0
   33.0884   -3.0089   12.2728 H   0  0  0  0  0
   35.0141   -1.0137   13.4988 H   0  0  0  0  0
   33.8209   -2.0660   14.3766 H   0  0  0  0  0
   32.0006   -0.9004   13.3160 H   0  0  0  0  0
   33.1873    0.1424   12.4148 H   0  0  0  0  0
   33.0363    0.0201   15.4187 H   0  0  0  0  0
   32.0717    1.1823   14.4242 H   0  0  0  0  0
   35.0768    0.9266   14.5664 H   0  0  0  0  0
   34.0408    2.2813   15.2020 H   0  0  0  0  0
   35.1184    2.8483   13.1440 H   0  0  0  0  0
   34.4124    1.5513   12.3720 H   0  0  0  0  0
   33.4639    2.7916   12.9539 H   0  0  0  0  0
   32.2588   -2.2004   10.5245 H   0  0  0  0  0
   33.7656   -1.2705    8.3169 H   0  0  0  0  0
   31.6151   -0.3464    7.4974 H   0  0  0  0  0
   30.8947   -0.7763    9.1334 H   0  0  0  0  0
   30.2199   -2.4044    7.5957 H   0  0  0  0  0
   31.5385   -3.1141    8.6226 H   0  0  0  0  0
   30.5947   -1.6045    5.1125 H   0  0  0  0  0
   31.9499   -0.5812    5.6484 H   0  0  0  0  0
   32.1639   -1.6951    4.2755 H   0  0  0  0  0
   34.6180    0.6584    7.7782 H   0  0  0  0  0
   34.0682    2.9516    9.5946 H   0  0  0  0  0
   35.9464    4.0218    8.3442 H   0  0  0  0  0
   36.1669    2.4246    7.4927 H   0  0  0  0  0
   36.4671    1.4148    9.7402 H   0  0  0  0  0
   36.5389    3.0887   10.3990 H   0  0  0  0  0
   38.4372    3.5781    8.9790 H   0  0  0  0  0
   38.3558    1.9193    8.2843 H   0  0  0  0  0
   38.5765    1.8205   11.1377 H   0  0  0  0  0
   41.9713    1.9823    8.9425 H   0  0  0  0  0
   40.4404    2.4750    8.2112 H   0  0  0  0  0
   40.5311    1.1982   12.0665 H   0  0  0  0  0
   33.0701    4.7843    8.9678 H   0  0  0  0  0
   31.8503    4.7327    6.2568 H   0  0  0  0  0
   30.3675    6.4639    7.1198 H   0  0  0  0  0
   31.2992    6.4351    8.6994 H   0  0  0  0  0
   30.5717    4.1154    8.9966 H   0  0  0  0  0
   29.5674    4.2625    7.5287 H   0  0  0  0  0
   29.6008    7.6541    8.6633 H   0  0  0  0  0
   28.3923    7.0461    7.5054 H   0  0  0  0  0
   27.8652    7.7716    9.0438 H   0  0  0  0  0
   32.5057    6.0471    4.6664 H   0  0  0  0  0
   34.5397    8.0876    5.1349 H   0  0  0  0  0
   34.3774    6.9047    3.0185 H   0  0  0  0  0
   32.7545    7.5878    2.7527 H   0  0  0  0  0
   34.1750    8.6605    2.8015 H   0  0  0  0  0
   34.2619   10.3558    5.0072 H   0  0  0  0  0
   31.5252   11.1717    5.8492 H   0  0  0  0  0
   34.2341   12.3933    6.5118 H   0  0  0  0  0
   33.5286   11.7776    8.6617 H   0  0  0  0  0
   32.5581   14.1649    6.2000 H   0  0  0  0  0
   31.4485   13.3189    7.3063 H   0  0  0  0  0
   32.9809   13.9863    7.9205 H   0  0  0  0  0
   31.3955   13.5685    2.1081 H   0  0  0  0  0
   29.0080   13.1841    2.1685 H   0  0  0  0  0
   28.9880   14.8445    2.6470 H   0  0  0  0  0
   27.9145   13.0117    4.2445 H   0  0  0  0  0
   28.8035   14.3392    4.9406 H   0  0  0  0  0
   30.0163   12.5514    5.9041 H   0  0  0  0  0
   29.6568   11.4691    4.6336 H   0  0  0  0  0
   32.1439   15.4548    1.4779 H   0  0  0  0  0
   32.8617   17.4008    3.5359 H   0  0  0  0  0
   33.8164   18.6741    1.7145 H   0  0  0  0  0
   33.0589   17.4822    0.5251 H   0  0  0  0  0
   34.5047   15.7682    1.3188 H   0  0  0  0  0
   35.3326   17.1918   -0.4796 H   0  0  0  0  0
   36.0402   18.3095    0.7125 H   0  0  0  0  0
   36.6711   16.6510    0.5630 H   0  0  0  0  0
   35.6519   17.8600    3.1925 H   0  0  0  0  0
   34.6833   16.4408    3.6600 H   0  0  0  0  0
   36.2986   16.2196    2.9440 H   0  0  0  0  0
   32.0281   19.4286    3.8865 H   0  0  0  0  0
   29.3076   19.8616    2.8492 H   0  0  0  0  0
   31.0072   21.5461    4.6717 H   0  0  0  0  0
   29.7225   20.3006    5.1520 H   0  0  0  0  0
   29.2436   22.8979    3.7130 H   0  0  0  0  0
   27.6057   21.1740    3.1849 H   0  0  0  0  0
   27.3448   20.8649    4.9190 H   0  0  0  0  0
   26.8810   22.4332    4.2145 H   0  0  0  0  0
   28.7946   22.1415    6.6246 H   0  0  0  0  0
   29.9923   23.3083    6.0120 H   0  0  0  0  0
   28.2523   23.6515    5.8519 H   0  0  0  0  0
   28.6299   21.5041    1.5480 H   0  0  0  0  0
   30.6868   22.6499   -0.2136 H   0  0  0  0  0
   28.7330   23.5649   -1.4224 H   0  0  0  0  0
   27.6681   22.8166   -0.1447 H   0  0  0  0  0
   28.5123   20.6349   -0.7711 H   0  0  0  0  0
   29.4839   21.4092   -2.0894 H   0  0  0  0  0
   28.4314   19.7903   -3.8737 H   0  0  0  0  0
   27.4909   18.9874   -2.5924 H   0  0  0  0  0
   26.6792   19.5451   -4.0761 H   0  0  0  0  0
   30.8219   24.9107   -0.7187 H   0  0  0  0  0
   30.9481   26.5252    1.6406 H   0  0  0  0  0
   31.0194   27.3545   -1.2758 H   0  0  0  0  0
   32.4445   26.8663   -0.2427 H   0  0  0  0  0
   32.1362   28.8016    1.1215 H   0  0  0  0  0
   30.6772   29.2776    0.1454 H   0  0  0  0  0
   33.2693   31.4703   -1.1530 H   0  0  0  0  0
   32.1971   31.3036    0.2412 H   0  0  0  0  0
   29.6399   27.9608    2.3134 H   0  0  0  0  0
  1  2  1  0  0  0
  1  7  1  0  0  0
  2  3  1  0  0  0
  2  5  1  0  0  0
  3  4  2  0  0  0
  3  8  1  0  0  0
  5  6  1  0  0  0
  6  7  1  0  0  0
  8  9  1  0  0  0
  9 10  1  0  0  0
  9 12  1  0  0  0
 10 11  2  0  0  0
 10 15  1  0  0  0
 12 13  1  0  0  0
 12 14  1  0  0  0
 15 16  1  0  0  0
 16 17  1  0  0  0
 16 19  1  0  0  0
 17 18  2  0  0  0
 17 21  1  0  0  0
 19 20  1  0  0  0
 21 22  1  0  0  0
 22 23  1  0  0  0
 22 25  1  0  0  0
 23 24  2  0  0  0
 23 30  1  0  0  0
 25 26  1  0  0  0
 26 27  1  0  0  0
 27 28  1  0  0  0
 28 29  1  0  0  0
 30 31  1  0  0  0
 31 32  1  0  0  0
 31 34  1  0  0  0
 32 33  2  0  0  0
 32 38  1  0  0  0
 34 35  1  0  0  0
 35 36  1  0  0  0
 36 37  1  0  0  0
 38 39  1  0  0  0
 39 40  1  0  0  0
 39 42  1  0  0  0
 40 41  2  0  0  0
 40 49  1  0  0  0
 42 43  1  0  0  0
 43 44  1  0  0  0
 44 45  1  0  0  0
 45 46  1  0  0  0
 46 47  1  0  0  0
 46 48  2  0  0  0
 49 50  1  0  0  0
 50 51  1  0  0  0
 50 53  1  0  0  0
 51 52  2  0  0  0
 51 57  1  0  0  0
 53 54  1  0  0  0
 54 55  1  0  0  0
 55 56  1  0  0  0
 57 58  1  0  0  0
 58 59  1  0  0  0
 58 61  1  0  0  0
 59 60  2  0  0  0
 59 62  1  0  0  0
 62 63  1  0  0  0
 63 64  1  0  0  0
 63 66  1  0  0  0
 64 65  2  0  0  0
 64 69  1  0  0  0
 66 67  1  0  0  0
 66 68  1  0  0  0
 69 70  1  0  0  0
 69 75  1  0  0  0
 70 71  1  0  0  0
 70 73  1  0  0  0
 71 72  2  0  0  0
 71 76  1  0  0  0
 73 74  1  0  0  0
 74 75  1  0  0  0
 76 77  1  0  0  0
 77 78  1  0  0  0
 77 80  1  0  0  0
 78 79  2  0  0  0
 78 84  1  0  0  0
 80 81  1  0  0  0
 81 82  1  0  0  0
 81 83  1  0  0  0
 84 85  1  0  0  0
 85 86  1  0  0  0
 85 88  1  0  0  0
 86 87  2  0  0  0
 86 92  1  0  0  0
 88 89  1  0  0  0
 89 90  1  0  0  0
 89 91  1  0  0  0
 92 93  1  0  0  0
 93 94  1  0  0  0
 93 96  1  0  0  0
 94 95  2  0  0  0
 94100  1  0  0  0
 96 97  1  0  0  0
 97 98  1  0  0  0
 98 99  1  0  0  0
100101  1  0  0  0
101102  1  0  0  0
101104  1  0  0  0
102103  2  0  0  0
104105  1  0  0  0
105106  1  0  0  0
106107  2  0  0  0
106108  1  0  0  0
102109  1  0  0  0
  1110  1  0  0  0
  1111  1  0  0  0
  2112  1  0  0  0
  5113  1  0  0  0
  5114  1  0  0  0
  6115  1  0  0  0
  6116  1  0  0  0
  7117  1  0  0  0
  7118  1  0  0  0
  8119  1  0  0  0
  9120  1  0  0  0
 12121  1  0  0  0
 13122  1  0  0  0
 13123  1  0  0  0
 13124  1  0  0  0
 14125  1  0  0  0
 14126  1  0  0  0
 14127  1  0  0  0
 15128  1  0  0  0
 16129  1  0  0  0
 19130  1  0  0  0
 19131  1  0  0  0
 20132  1  0  0  0
 21133  1  0  0  0
 22134  1  0  0  0
 25135  1  0  0  0
 25136  1  0  0  0
 26137  1  0  0  0
 26138  1  0  0  0
 27139  1  0  0  0
 27140  1  0  0  0
 28141  1  0  0  0
 28142  1  0  0  0
 29143  1  0  0  0
 29144  1  0  0  0
 29145  1  0  0  0
 30146  1  0  0  0
 31147  1  0  0  0
 34148  1  0  0  0
 34149  1  0  0  0
 35150  1  0  0  0
 35151  1  0  0  0
 37152  1  0  0  0
 37153  1  0  0  0
 37154  1  0  0  0
 38155  1  0  0  0
 39156  1  0  0  0
 42157  1  0  0  0
 42158  1  0  0  0
 43159  1  0  0  0
 43160  1  0  0  0
 44161  1  0  0  0
 44162  1  0  0  0
 45163  1  0  0  0
 47164  1  0  0  0
 47165  1  0  0  0
 48166  1  0  0  0
 49167  1  0  0  0
 50168  1  0  0  0
 53169  1  0  0  0
 53170  1  0  0  0
 54171  1  0  0  0
 54172  1  0  0  0
 56173  1  0  0  0
 56174  1  0  0  0
 56175  1  0  0  0
 57176  1  0  0  0
 58177  1  0  0  0
 61178  1  0  0  0
 61179  1  0  0  0
 61180  1  0  0  0
 62181  1  0  0  0
 63182  1  0  0  0
 66183  1  0  0  0
 67184  1  0  0  0
 68185  1  0  0  0
 68186  1  0  0  0
 68187  1  0  0  0
 70188  1  0  0  0
 73189  1  0  0  0
 73190  1  0  0  0
 74191  1  0  0  0
 74192  1  0  0  0
 75193  1  0  0  0
 75194  1  0  0  0
 76195  1  0  0  0
 77196  1  0  0  0
 80197  1  0  0  0
 80198  1  0  0  0
 81199  1  0  0  0
 82200  1  0  0  0
 82201  1  0  0  0
 82202  1  0  0  0
 83203  1  0  0  0
 83204  1  0  0  0
 83205  1  0  0  0
 84206  1  0  0  0
 85207  1  0  0  0
 88208  1  0  0  0
 88209  1  0  0  0
 89210  1  0  0  0
 90211  1  0  0  0
 90212  1  0  0  0
 90213  1  0  0  0
 91214  1  0  0  0
 91215  1  0  0  0
 91216  1  0  0  0
 92217  1  0  0  0
 93218  1  0  0  0
 96219  1  0  0  0
 96220  1  0  0  0
 97221  1  0  0  0
 97222  1  0  0  0
 99223  1  0  0  0
 99224  1  0  0  0
 99225  1  0  0  0
100226  1  0  0  0
101227  1  0  0  0
104228  1  0  0  0
104229  1  0  0  0
105230  1  0  0  0
105231  1  0  0  0
108232  1  0  0  0
108233  1  0  0  0
109234  1  0  0  0
M  END
$$$$
