### 
### Created by X-TOOL on Mon Sep 10 21:13:06 2018
### 

@<TRIPOS>MOLECULE
3qxd_ligand
  234   235     1     0     0
SMALL
GAST_HUCK


@<TRIPOS>ATOM
      1 N          39.1210   -0.4340   13.2200 N.4       1 PRO         0.2461
      2 CA         38.4300   -1.2100   14.2530 C.3       1 PRO         0.0670
      3 C          38.4600   -2.7000   13.9220 C.2       1 PRO         0.2268
      4 O          37.8390   -3.5000   14.6180 O.2       1 PRO        -0.3907
      5 CB         36.9970   -0.6810   14.1830 C.3       1 PRO         0.0127
      6 CG         37.0970    0.6520   13.5510 C.3       1 PRO        -0.0053
      7 CD         38.2370    0.5610   12.5890 C.3       1 PRO        -0.0313
      8 N          39.1880   -3.0510   12.8650 N.am      1 VAL        -0.2608
      9 CA         39.3510   -4.4400   12.4030 C.3       1 VAL         0.1334
     10 C          38.0580   -5.1640   11.9920 C.2       1 VAL         0.2042
     11 O          37.9550   -5.6580   10.8690 O.2       1 VAL        -0.3944
     12 CB         40.2000   -5.3130   13.3710 C.3       1 VAL        -0.0063
     13 CG1        39.4080   -5.7170   14.6090 C.3       1 VAL        -0.0584
     14 CG2        40.6880   -6.5520   12.6470 C.3       1 VAL        -0.0584
     15 N          37.0800   -5.2380   12.8880 N.am      1 SER        -0.2616
     16 CA         35.8070   -5.8560   12.5360 C.3       1 SER         0.1539
     17 C          34.6860   -4.8160   12.4520 C.2       1 SER         0.2062
     18 O          33.5050   -5.1660   12.3720 O.2       1 SER        -0.3943
     19 CB         35.4370   -6.9880   13.5090 C.3       1 SER         0.0843
     20 OG         34.9550   -6.4830   14.7420 O.3       1 SER        -0.3903
     21 N          35.0490   -3.5360   12.4660 N.am      1 LYS        -0.2637
     22 CA         34.0450   -2.4870   12.2960 C.3       1 LYS         0.1310
     23 C          34.1810   -1.7290   10.9770 C.2       1 LYS         0.2039
     24 O          35.2470   -1.2070   10.6500 O.2       1 LYS        -0.3944
     25 CB         34.0400   -1.5020   13.4700 C.3       1 LYS        -0.0122
     26 CG         32.9750   -0.4120   13.3290 C.3       1 LYS        -0.0440
     27 CD         32.9800    0.5830   14.4870 C.3       1 LYS        -0.0124
     28 CE         34.1770    1.5260   14.4280 C.3       1 LYS        -0.0354
     29 NZ         34.3030    2.2360   13.1200 N.4       1 LYS         0.2185
     30 N          33.0810   -1.6740   10.2290 N.am      1 MET        -0.2637
     31 CA         33.0090   -0.8880    9.0020 C.3       1 MET         0.1317
     32 C          33.2730    0.5800    9.2990 C.2       1 MET         0.2039
     33 O          32.7060    1.1470   10.2380 O.2       1 MET        -0.3944
     34 CB         31.6240   -1.0140    8.3590 C.3       1 MET        -0.0034
     35 CG         31.2810   -2.3950    7.8450 C.3       1 MET        -0.0024
     36 SD         32.2000   -2.8350    6.3610 S.3       1 MET        -0.1639
     37 CE         31.6760   -1.5540    5.2400 C.3       1 MET        -0.0181
     38 N          34.1230    1.1970    8.4890 N.am      1 ARG        -0.2637
     39 CA         34.3620    2.6280    8.5960 C.3       1 ARG         0.1311
     40 C          33.5260    3.3850    7.5710 C.2       1 ARG         0.2039
     41 O          33.4050    2.9670    6.4210 O.2       1 ARG        -0.3944
     42 CB         35.8430    2.9380    8.3980 C.3       1 ARG        -0.0092
     43 CG         36.7160    2.4550    9.5300 C.3       1 ARG        -0.0156
     44 CD         38.1830    2.5350    9.1670 C.3       1 ARG         0.0627
     45 NE         39.0240    2.0410   10.2480 N.pl3     1 ARG        -0.2723
     46 CZ         40.3350    1.8590   10.1510 C.cat     1 ARG         0.2882
     47 NH1        40.9640    2.1260    9.0140 N.pl3     1 ARG        -0.2849
     48 NH2        41.0150    1.4060   11.1930 N.pl3     1 ARG        -0.2849
     49 N          32.9540    4.5040    7.9940 N.am      1 MET        -0.2637
     50 CA         32.1650    5.3420    7.1040 C.3       1 MET         0.1317
     51 C          32.9890    6.5110    6.5870 C.2       1 MET         0.2039
     52 O          33.6470    7.2050    7.3580 O.2       1 MET        -0.3944
     53 CB         30.9370    5.8740    7.8380 C.3       1 MET        -0.0034
     54 CG         30.0070    4.8030    8.3670 C.3       1 MET        -0.0024
     55 SD         28.6940    5.5580    9.3410 S.3       1 MET        -0.1639
     56 CE         28.6320    7.1650    8.5620 C.3       1 MET        -0.0181
     57 N          32.9560    6.7280    5.2780 N.am      1 ALA        -0.2640
     58 CA         33.5520    7.9210    4.7050 C.3       1 ALA         0.1282
     59 C          32.6530    9.1170    5.0240 C.2       1 ALA         0.2037
     60 O          31.4380    8.9730    5.1490 O.2       1 ALA        -0.3944
     61 CB         33.7270    7.7570    3.2150 C.3       1 ALA        -0.0244
     62 N          33.2570   10.2920    5.1700 N.am      1 THR        -0.2613
     63 CA         32.5250   11.4920    5.5560 C.3       1 THR         0.1567
     64 C          32.3900   12.4710    4.3900 C.2       1 THR         0.2090
     65 O          33.3740   12.8130    3.7310 O.2       1 THR        -0.3941
     66 CB         33.1920   12.1930    6.7610 C.3       1 THR         0.0924
     67 OG1        33.1140   11.3410    7.9140 O.3       1 THR        -0.3874
     68 CG2        32.4950   13.5100    7.0690 C.3       1 THR        -0.0346
     69 N          31.1560   12.9160    4.1240 N.am      1 PRO        -0.2498
     70 CA         30.8960   13.8570    3.0330 C.3       1 PRO         0.1338
     71 C          31.4070   15.2560    3.3620 C.2       1 PRO         0.2041
     72 O          31.2660   15.7140    4.4970 O.2       1 PRO        -0.3944
     73 CB         29.3700   13.8660    2.9380 C.3       1 PRO        -0.0104
     74 CG         28.9020   13.4710    4.2890 C.3       1 PRO        -0.0281
     75 CD         29.9220   12.5100    4.8190 C.3       1 PRO         0.0369
     76 N          31.9960   15.9210    2.3730 N.am      1 LEU        -0.2637
     77 CA         32.4350   17.3000    2.5380 C.3       1 LEU         0.1312
     78 C          31.2560   18.2620    2.4120 C.2       1 LEU         0.2039
     79 O          30.3420   18.0430    1.6150 O.2       1 LEU        -0.3944
     80 CB         33.5080   17.6500    1.5040 C.3       1 LEU        -0.0101
     81 CG         34.7780   16.7980    1.5490 C.3       1 LEU        -0.0425
     82 CD1        35.7760   17.2710    0.5130 C.3       1 LEU        -0.0625
     83 CD2        35.3970   16.8320    2.9350 C.3       1 LEU        -0.0625
     84 N          31.2780   19.3260    3.2030 N.am      1 LEU        -0.2637
     85 CA         30.2460   20.3510    3.1100 C.3       1 LEU         0.1312
     86 C          30.5970   21.3590    2.0230 C.2       1 LEU         0.2039
     87 O          31.7740   21.6750    1.7990 O.2       1 LEU        -0.3944
     88 CB         30.0560   21.0630    4.4480 C.3       1 LEU        -0.0101
     89 CG         28.9970   22.1700    4.4860 C.3       1 LEU        -0.0425
     90 CD1        27.6070   21.6210    4.1790 C.3       1 LEU        -0.0625
     91 CD2        29.0100   22.8680    5.8410 C.3       1 LEU        -0.0625
     92 N          29.5690   21.8430    1.3390 N.am      1 MET        -0.2637
     93 CA         29.7450   22.8430    0.3000 C.3       1 MET         0.1317
     94 C          29.8040   24.2400    0.9060 C.2       1 MET         0.2034
     95 O          29.3000   24.4670    2.0070 O.2       1 MET        -0.3944
     96 CB         28.6010   22.7550   -0.7050 C.3       1 MET        -0.0034
     97 CG         28.5780   21.4560   -1.4850 C.3       1 MET        -0.0024
     98 SD         27.1610   21.3460   -2.5940 S.3       1 MET        -0.1639
     99 CE         27.4710   19.7620   -3.3590 C.3       1 MET        -0.0181
    100 N          30.4180   25.1710    0.1810 N.am      1 GLN        -0.2693
    101 CA         30.5310   26.5530    0.6340 C.3       1 GLN         0.0964
    102 C          29.1740   27.2430    0.7070 C.2       1 GLN         0.0602
    103 O          28.3420   27.1120   -0.1950 O.co2     1 GLN        -0.5666
    104 CB         31.4670   27.3470   -0.2820 C.3       1 GLN        -0.0010
    105 CG         31.6580   28.8020    0.1420 C.3       1 GLN         0.0407
    106 CD         32.5520   29.5900   -0.8100 C.2       1 GLN         0.1737
    107 OE1        33.1180   29.0390   -1.7590 O.2       1 GLN        -0.3973
    108 NE2        32.6830   30.8890   -0.5540 N.am      1 GLN        -0.3009
    109 H          39.4398   -1.0795   12.4975 H         1 PRO         0.2035
    110 H          39.8954    0.0627   13.6604 H         1 PRO         0.2035
    111 H          38.8841   -1.1077   15.2386 H         1 PRO         0.1099
    112 H          36.5454   -0.6201   15.1732 H         1 PRO         0.0347
    113 H          36.3534   -1.3474   13.6088 H         1 PRO         0.0347
    114 H          37.2658    1.4317   14.2938 H         1 PRO         0.0320
    115 H          36.1704    0.9213   13.0440 H         1 PRO         0.0320
    116 H          37.9226    0.2724   11.5860 H         1 PRO         0.0814
    117 H          38.7287    1.5196   12.4234 H         1 PRO         0.0814
    118 H          39.6618   -2.3137   12.3432 H         1 VAL         0.1885
    119 H          39.9128   -4.3169   11.4771 H         1 VAL         0.0802
    120 H          41.0508   -4.7164   13.7002 H         1 VAL         0.0343
    121 H          39.0901   -4.8218   15.1435 H         1 VAL         0.0234
    122 H          38.5324   -6.2916   14.3071 H         1 VAL         0.0234
    123 H          40.0371   -6.3254   15.2587 H         1 VAL         0.0234
    124 H          39.8313   -7.1281   12.2974 H         1 VAL         0.0234
    125 H          41.3004   -6.2560   11.7953 H         1 VAL         0.0234
    126 H          41.2820   -7.1598   13.3295 H         1 VAL         0.0234
    127 H          37.2200   -4.8612   13.8255 H         1 SER         0.1884
    128 H          35.9272   -6.2987   11.5472 H         1 SER         0.0823
    129 H          36.3323   -7.5777   13.7060 H         1 SER         0.0606
    130 H          34.6503   -7.5891   13.0531 H         1 SER         0.0606
    131 H          34.1714   -5.9513   14.5843 H         1 SER         0.2097
    132 H          36.0294   -3.2862   12.5956 H         1 LYS         0.1883
    133 H          33.0884   -3.0089   12.2728 H         1 LYS         0.0800
    134 H          35.0141   -1.0137   13.4988 H         1 LYS         0.0312
    135 H          33.8209   -2.0660   14.3766 H         1 LYS         0.0312
    136 H          32.0006   -0.9004   13.3160 H         1 LYS         0.0269
    137 H          33.1873    0.1424   12.4148 H         1 LYS         0.0269
    138 H          33.0363    0.0201   15.4187 H         1 LYS         0.0317
    139 H          32.0717    1.1823   14.4242 H         1 LYS         0.0317
    140 H          35.0768    0.9266   14.5664 H         1 LYS         0.0813
    141 H          34.0408    2.2813   15.2020 H         1 LYS         0.0813
    142 H          35.1184    2.8483   13.1440 H         1 LYS         0.1994
    143 H          34.4124    1.5513   12.3720 H         1 LYS         0.1994
    144 H          33.4639    2.7916   12.9539 H         1 LYS         0.1994
    145 H          32.2588   -2.2004   10.5245 H         1 MET         0.1883
    146 H          33.7656   -1.2705    8.3169 H         1 MET         0.0800
    147 H          31.6151   -0.3464    7.4974 H         1 MET         0.0320
    148 H          30.8947   -0.7763    9.1334 H         1 MET         0.0320
    149 H          30.2199   -2.4044    7.5957 H         1 MET         0.0378
    150 H          31.5385   -3.1141    8.6226 H         1 MET         0.0378
    151 H          30.5947   -1.6045    5.1125 H         1 MET         0.0340
    152 H          31.9499   -0.5812    5.6484 H         1 MET         0.0340
    153 H          32.1639   -1.6951    4.2755 H         1 MET         0.0340
    154 H          34.6180    0.6584    7.7782 H         1 ARG         0.1883
    155 H          34.0682    2.9516    9.5946 H         1 ARG         0.0800
    156 H          35.9464    4.0218    8.3442 H         1 ARG         0.0313
    157 H          36.1669    2.4246    7.4927 H         1 ARG         0.0313
    158 H          36.4671    1.4148    9.7402 H         1 ARG         0.0301
    159 H          36.5389    3.0887   10.3990 H         1 ARG         0.0301
    160 H          38.4372    3.5781    8.9790 H         1 ARG         0.0689
    161 H          38.3558    1.9193    8.2843 H         1 ARG         0.0689
    162 H          38.5765    1.8205   11.1377 H         1 ARG         0.2642
    163 H          40.4399    2.4725    8.2104 H         1 ARG         0.2615
    164 H          41.9717    1.9848    8.9433 H         1 ARG         0.2615
    165 H          40.5311    1.1982   12.0665 H         1 ARG         0.2615
    166 H          42.0227    1.2649   11.1221 H         1 ARG         0.2615
    167 H          33.0701    4.7843    8.9678 H         1 MET         0.1883
    168 H          31.8503    4.7327    6.2568 H         1 MET         0.0800
    169 H          30.3675    6.4639    7.1198 H         1 MET         0.0320
    170 H          31.2992    6.4351    8.6994 H         1 MET         0.0320
    171 H          30.5717    4.1154    8.9966 H         1 MET         0.0378
    172 H          29.5674    4.2625    7.5287 H         1 MET         0.0378
    173 H          29.6008    7.6541    8.6633 H         1 MET         0.0340
    174 H          28.3923    7.0461    7.5054 H         1 MET         0.0340
    175 H          27.8652    7.7716    9.0438 H         1 MET         0.0340
    176 H          32.5057    6.0471    4.6664 H         1 ALA         0.1883
    177 H          34.5397    8.0876    5.1349 H         1 ALA         0.0797
    178 H          34.3774    6.9047    3.0185 H         1 ALA         0.0277
    179 H          32.7545    7.5878    2.7527 H         1 ALA         0.0277
    180 H          34.1750    8.6605    2.8015 H         1 ALA         0.0277
    181 H          34.2619   10.3558    5.0072 H         1 THR         0.1884
    182 H          31.5252   11.1717    5.8492 H         1 THR         0.0826
    183 H          34.2341   12.3933    6.5118 H         1 THR         0.0639
    184 H          32.1928   11.1624    8.1168 H         1 THR         0.2101
    185 H          32.5581   14.1649    6.2000 H         1 THR         0.0257
    186 H          31.4485   13.3189    7.3063 H         1 THR         0.0257
    187 H          32.9809   13.9863    7.9205 H         1 THR         0.0257
    188 H          31.3955   13.5685    2.1081 H         1 PRO         0.0802
    189 H          29.0080   13.1841    2.1685 H         1 PRO         0.0313
    190 H          28.9880   14.8445    2.6470 H         1 PRO         0.0313
    191 H          27.9145   13.0117    4.2445 H         1 PRO         0.0287
    192 H          28.8035   14.3392    4.9406 H         1 PRO         0.0287
    193 H          30.0163   12.5514    5.9041 H         1 PRO         0.0524
    194 H          29.6568   11.4691    4.6336 H         1 PRO         0.0524
    195 H          32.1439   15.4548    1.4779 H         1 LEU         0.1883
    196 H          32.8617   17.4008    3.5359 H         1 LEU         0.0800
    197 H          33.8164   18.6741    1.7145 H         1 LEU         0.0315
    198 H          33.0589   17.4822    0.5251 H         1 LEU         0.0315
    199 H          34.5047   15.7682    1.3188 H         1 LEU         0.0298
    200 H          35.3326   17.1918   -0.4796 H         1 LEU         0.0232
    201 H          36.0402   18.3095    0.7125 H         1 LEU         0.0232
    202 H          36.6711   16.6510    0.5630 H         1 LEU         0.0232
    203 H          35.6519   17.8600    3.1925 H         1 LEU         0.0232
    204 H          34.6833   16.4408    3.6600 H         1 LEU         0.0232
    205 H          36.2986   16.2196    2.9440 H         1 LEU         0.0232
    206 H          32.0281   19.4286    3.8865 H         1 LEU         0.1883
    207 H          29.3076   19.8616    2.8492 H         1 LEU         0.0800
    208 H          31.0072   21.5461    4.6717 H         1 LEU         0.0315
    209 H          29.7225   20.3006    5.1520 H         1 LEU         0.0315
    210 H          29.2436   22.8979    3.7130 H         1 LEU         0.0298
    211 H          27.6057   21.1740    3.1849 H         1 LEU         0.0232
    212 H          27.3448   20.8649    4.9190 H         1 LEU         0.0232
    213 H          26.8810   22.4332    4.2145 H         1 LEU         0.0232
    214 H          28.7946   22.1415    6.6246 H         1 LEU         0.0232
    215 H          29.9923   23.3083    6.0120 H         1 LEU         0.0232
    216 H          28.2523   23.6515    5.8519 H         1 LEU         0.0232
    217 H          28.6299   21.5041    1.5480 H         1 MET         0.1883
    218 H          30.6868   22.6499   -0.2136 H         1 MET         0.0800
    219 H          28.7330   23.5649   -1.4224 H         1 MET         0.0320
    220 H          27.6681   22.8166   -0.1447 H         1 MET         0.0320
    221 H          28.5123   20.6349   -0.7711 H         1 MET         0.0378
    222 H          29.4839   21.4092   -2.0894 H         1 MET         0.0378
    223 H          28.4314   19.7903   -3.8737 H         1 MET         0.0340
    224 H          27.4909   18.9874   -2.5924 H         1 MET         0.0340
    225 H          26.6792   19.5451   -4.0761 H         1 MET         0.0340
    226 H          30.8219   24.9107   -0.7187 H         1 GLN         0.1875
    227 H          30.9481   26.5252    1.6406 H         1 GLN         0.0727
    228 O          28.8968   27.9596    1.7056 O.co2     1 GLN        -0.5666
    229 H          31.0194   27.3545   -1.2758 H         1 GLN         0.0330
    230 H          32.4445   26.8663   -0.2427 H         1 GLN         0.0330
    231 H          32.1362   28.8016    1.1215 H         1 GLN         0.0504
    232 H          30.6772   29.2776    0.1454 H         1 GLN         0.0504
    233 H          33.2693   31.4703   -1.1530 H         1 GLN         0.1814
    234 H          32.1971   31.3036    0.2412 H         1 GLN         0.1814
@<TRIPOS>BOND
     1    1    2 1  
     2    1    7 1  
     3    2    3 1  
     4    2    5 1  
     5    3    4 2  
     6    3    8 am 
     7    5    6 1  
     8    6    7 1  
     9    8    9 1  
    10    9   10 1  
    11    9   12 1  
    12   10   11 2  
    13   10   15 am 
    14   12   13 1  
    15   12   14 1  
    16   15   16 1  
    17   16   17 1  
    18   16   19 1  
    19   17   18 2  
    20   17   21 am 
    21   19   20 1  
    22   21   22 1  
    23   22   23 1  
    24   22   25 1  
    25   23   24 2  
    26   23   30 am 
    27   25   26 1  
    28   26   27 1  
    29   27   28 1  
    30   28   29 1  
    31   30   31 1  
    32   31   32 1  
    33   31   34 1  
    34   32   33 2  
    35   32   38 am 
    36   34   35 1  
    37   35   36 1  
    38   36   37 1  
    39   38   39 1  
    40   39   40 1  
    41   39   42 1  
    42   40   41 2  
    43   40   49 am 
    44   42   43 1  
    45   43   44 1  
    46   44   45 1  
    47   45   46 ar 
    48   46   47 ar 
    49   46   48 ar 
    50   49   50 1  
    51   50   51 1  
    52   50   53 1  
    53   51   52 2  
    54   51   57 am 
    55   53   54 1  
    56   54   55 1  
    57   55   56 1  
    58   57   58 1  
    59   58   59 1  
    60   58   61 1  
    61   59   60 2  
    62   59   62 am 
    63   62   63 1  
    64   63   64 1  
    65   63   66 1  
    66   64   65 2  
    67   64   69 am 
    68   66   67 1  
    69   66   68 1  
    70   69   70 1  
    71   69   75 1  
    72   70   71 1  
    73   70   73 1  
    74   71   72 2  
    75   71   76 am 
    76   73   74 1  
    77   74   75 1  
    78   76   77 1  
    79   77   78 1  
    80   77   80 1  
    81   78   79 2  
    82   78   84 am 
    83   80   81 1  
    84   81   82 1  
    85   81   83 1  
    86   84   85 1  
    87   85   86 1  
    88   85   88 1  
    89   86   87 2  
    90   86   92 am 
    91   88   89 1  
    92   89   90 1  
    93   89   91 1  
    94   92   93 1  
    95   93   94 1  
    96   93   96 1  
    97   94   95 2  
    98   94  100 am 
    99   96   97 1  
   100   97   98 1  
   101   98   99 1  
   102  100  101 1  
   103  101  102 1  
   104  101  104 1  
   105  102  103 ar 
   106  104  105 1  
   107  105  106 1  
   108  106  107 2  
   109  106  108 am 
   110    1  109 1  
   111    1  110 1  
   112    2  111 1  
   113    5  112 1  
   114    5  113 1  
   115    6  114 1  
   116    6  115 1  
   117    7  116 1  
   118    7  117 1  
   119    8  118 1  
   120    9  119 1  
   121   12  120 1  
   122   13  121 1  
   123   13  122 1  
   124   13  123 1  
   125   14  124 1  
   126   14  125 1  
   127   14  126 1  
   128   15  127 1  
   129   16  128 1  
   130   19  129 1  
   131   19  130 1  
   132   20  131 1  
   133   21  132 1  
   134   22  133 1  
   135   25  134 1  
   136   25  135 1  
   137   26  136 1  
   138   26  137 1  
   139   27  138 1  
   140   27  139 1  
   141   28  140 1  
   142   28  141 1  
   143   29  142 1  
   144   29  143 1  
   145   29  144 1  
   146   30  145 1  
   147   31  146 1  
   148   34  147 1  
   149   34  148 1  
   150   35  149 1  
   151   35  150 1  
   152   37  151 1  
   153   37  152 1  
   154   37  153 1  
   155   38  154 1  
   156   39  155 1  
   157   42  156 1  
   158   42  157 1  
   159   43  158 1  
   160   43  159 1  
   161   44  160 1  
   162   44  161 1  
   163   45  162 1  
   164   47  163 1  
   165   47  164 1  
   166   48  165 1  
   167   48  166 1  
   168   49  167 1  
   169   50  168 1  
   170   53  169 1  
   171   53  170 1  
   172   54  171 1  
   173   54  172 1  
   174   56  173 1  
   175   56  174 1  
   176   56  175 1  
   177   57  176 1  
   178   58  177 1  
   179   61  178 1  
   180   61  179 1  
   181   61  180 1  
   182   62  181 1  
   183   63  182 1  
   184   66  183 1  
   185   67  184 1  
   186   68  185 1  
   187   68  186 1  
   188   68  187 1  
   189   70  188 1  
   190   73  189 1  
   191   73  190 1  
   192   74  191 1  
   193   74  192 1  
   194   75  193 1  
   195   75  194 1  
   196   76  195 1  
   197   77  196 1  
   198   80  197 1  
   199   80  198 1  
   200   81  199 1  
   201   82  200 1  
   202   82  201 1  
   203   82  202 1  
   204   83  203 1  
   205   83  204 1  
   206   83  205 1  
   207   84  206 1  
   208   85  207 1  
   209   88  208 1  
   210   88  209 1  
   211   89  210 1  
   212   90  211 1  
   213   90  212 1  
   214   90  213 1  
   215   91  214 1  
   216   91  215 1  
   217   91  216 1  
   218   92  217 1  
   219   93  218 1  
   220   96  219 1  
   221   96  220 1  
   222   97  221 1  
   223   97  222 1  
   224   99  223 1  
   225   99  224 1  
   226   99  225 1  
   227  100  226 1  
   228  101  227 1  
   229  102  228 ar 
   230  104  229 1  
   231  104  230 1  
   232  105  231 1  
   233  105  232 1  
   234  108  233 1  
   235  108  234 1  
@<TRIPOS>SUBSTRUCTURE
     1 PRO         1

