2emt_ligand
  -I-interpret- 

261265  0  0  0  0  0  0  0  0999 V2000
   58.5060   12.9850   65.1160 N   0  3  0  0  0
   59.7680   12.3890   65.6720 C   0  0  0  0  0
   59.4920   11.1850   66.5790 C   0  0  0  0  0
   58.6170   10.3630   66.2820 O   0  0  0  0  0
   60.5210   13.4240   66.4860 C   0  0  0  0  0
   60.8680   14.6880   65.7470 C   0  0  0  0  0
   62.2960   15.0320   66.0330 C   0  0  0  0  0
   62.6810   16.3160   65.4750 N   0  0  0  0  0
   63.9400   16.7130   65.3630 C   0  0  0  0  0
   64.9140   15.9110   65.7660 N   0  0  0  0  0
   64.2220   17.9110   64.8660 N   0  0  0  0  0
   60.2580   11.0850   67.6700 N   0  0  0  0  0
   60.1210   10.0190   68.6660 C   0  0  0  0  0
   59.6400   10.6580   69.9710 C   0  0  0  0  0
   59.5610    9.9950   71.0120 O   0  0  0  0  0
   61.4710    9.3040   68.8850 C   0  0  0  0  0
   59.3050   11.9500   69.8880 N   0  0  0  0  0
   58.8190   12.7250   71.0330 C   0  0  0  0  0
   57.5900   13.5560   70.6730 C   0  0  0  0  0
   57.0720   13.4690   69.5550 O   0  0  0  0  0
   59.9170   13.6480   71.5530 C   0  0  0  0  0
   60.9840   12.9000   72.0970 O   0  0  0  0  0
   57.1190   14.3500   71.6330 N   0  0  0  0  0
   55.9400   15.1930   71.4380 C   0  0  0  0  0
   56.2210   16.6680   71.7160 C   0  0  0  0  0
   56.9420   17.0120   72.6510 O   0  0  0  0  0
   54.7970   14.7060   72.3320 C   0  0  0  0  0
   55.6370   17.5310   70.8940 N   0  0  0  0  0
   55.8090   18.9680   71.0310 C   0  0  0  0  0
   54.4520   19.6510   70.8960 C   0  0  0  0  0
   53.4310   18.9870   70.7290 O   0  0  0  0  0
   56.7570   19.4850   69.9520 C   0  0  0  0  0
   56.2460   19.2710   68.5460 C   0  0  0  0  0
   57.0620   20.0400   67.5440 C   0  0  0  0  0
   56.4120   19.9950   66.1740 C   0  0  0  0  0
   57.1340   20.8050   65.1610 N   0  3  0  0  0
   54.4470   20.9790   70.9570 N   0  0  0  0  0
   53.2090   21.7420   70.8540 C   0  0  0  0  0
   53.0250   22.4300   69.4860 C   0  0  0  0  0
   53.9190   23.1210   68.9850 O   0  0  0  0  0
   53.1260   22.8060   71.9900 C   0  0  0  0  0
   53.5560   22.2200   73.2210 O   0  0  0  0  0
   51.6950   23.2940   72.1900 C   0  0  0  0  0
   51.8570   22.2010   68.8850 N   0  0  0  0  0
   51.4810   22.7840   67.6000 C   0  0  0  0  0
   50.3380   23.7220   67.9160 C   0  0  0  0  0
   49.4420   23.3830   68.6810 O   0  0  0  0  0
   50.9640   21.7250   66.6240 C   0  0  0  0  0
   51.9040   20.5830   66.3960 C   0  0  0  0  0
   52.1630   20.0790   65.1380 N   0  0  0  0  0
   52.6040   19.8130   67.2630 C   0  0  0  0  0
   52.9800   19.0470   65.2400 C   0  0  0  0  0
   53.2630   18.8640   66.5190 N   0  0  0  0  0
   50.3470   24.8960   67.3160 N   0  0  0  0  0
   49.2980   25.8520   67.5990 C   0  0  0  0  0
   49.0140   26.7070   66.3810 C   0  0  0  0  0
   49.9240   27.1090   65.6610 O   0  0  0  0  0
   49.7170   26.7170   68.7910 C   0  0  0  0  0
   48.8150   27.8920   69.0920 C   0  0  0  0  0
   49.3430   29.4510   68.3110 S   0  0  0  0  0
   50.5220   30.1090   69.5620 C   0  0  0  0  0
   47.7340   26.9610   66.1440 N   0  0  0  0  0
   47.3000   27.7700   65.0290 C   0  0  0  0  0
   46.3580   28.8240   65.5600 C   0  0  0  0  0
   45.3460   28.4930   66.1920 O   0  0  0  0  0
   46.5690   26.9140   64.0110 C   0  0  0  0  0
   45.7680   27.7300   63.0360 C   0  0  0  0  0
   44.3930   27.8810   63.1890 C   0  0  0  0  0
   46.3890   28.3890   61.9740 C   0  0  0  0  0
   43.6580   28.6680   62.3050 C   0  0  0  0  0
   45.6650   29.1760   61.0890 C   0  0  0  0  0
   44.3040   29.3100   61.2600 C   0  0  0  0  0
   43.5890   30.0790   60.3840 O   0  0  0  0  0
   46.6810   30.1110   65.3290 N   0  0  0  0  0
   45.8820   31.2670   65.7660 C   0  0  0  0  0
   44.7110   31.5340   64.8310 C   0  0  0  0  0
   44.9050   31.9110   63.6840 O   0  0  0  0  0
   46.8930   32.4010   65.7510 C   0  0  0  0  0
   47.7770   32.0210   64.5990 C   0  0  0  0  0
   47.9880   30.5470   64.8030 C   0  0  0  0  0
   43.4920   31.3400   65.3170 N   0  0  0  0  0
   42.3170   31.5580   64.4810 C   0  0  0  0  0
   42.0430   33.0430   64.4250 C   0  0  0  0  0
   41.1690   33.5100   63.7000 O   0  0  0  0  0
   41.0970   30.8200   65.0430 C   0  0  0  0  0
   39.9230   30.9840   64.1070 C   0  0  0  0  0
   41.4310   29.3370   65.2290 C   0  0  0  0  0
   42.8220   33.7660   65.2190 N   0  0  0  0  0
   42.7730   35.2190   65.3260 C   0  0  0  0  0
   44.2320   35.6470   65.2530 C   0  0  0  0  0
   45.0340   35.3070   66.1290 O   0  0  0  0  0
   42.1750   35.6550   66.6730 C   0  0  0  0  0
   42.0490   37.1780   66.8430 C   0  0  0  0  0
   42.9310   37.7450   67.9700 C   0  0  0  0  0
   42.4900   37.3550   69.3130 N   0  0  0  0  0
   43.0250   37.8090   70.4460 C   0  0  0  0  0
   44.0260   38.6750   70.4110 N   0  0  0  0  0
   42.5580   37.3980   71.6190 N   0  0  0  0  0
   44.5810   36.3710   64.1970 N   0  0  0  0  0
   45.9490   36.8280   64.0150 C   0  0  0  0  0
   46.3250   37.8910   65.0440 C   0  0  0  0  0
   45.4910   38.3370   65.8290 O   0  0  0  0  0
   46.1230   37.3930   62.6100 C   0  0  0  0  0
   45.2490   38.6040   62.3630 C   0  0  0  0  0
   45.2760   39.1870   61.2820 O   0  0  0  0  0
   44.4700   38.9920   63.3670 N   0  0  0  0  0
   47.5860   38.3030   65.0210 N   0  0  0  0  0
   48.0780   39.3080   65.9490 C   0  0  0  0  0
   47.9370   40.6980   65.3460 C   0  0  0  0  0
   48.7450   41.5820   65.6150 O   0  0  0  0  0
   49.5440   39.0210   66.2810 C   0  0  0  0  0
   49.7760   37.6100   66.7780 C   0  0  0  0  0
   49.7510   36.5250   65.9020 C   0  0  0  0  0
   49.9620   37.3540   68.1370 C   0  0  0  0  0
   49.9000   35.2220   66.3710 C   0  0  0  0  0
   50.1100   36.0600   68.6140 C   0  0  0  0  0
   50.0770   35.0000   67.7320 C   0  0  0  0  0
   50.2110   33.7230   68.2260 O   0  0  0  0  0
   46.9030   40.8870   64.5330 N   0  0  0  0  0
   46.6610   42.1680   63.8790 C   0  0  0  0  0
   47.9090   42.6820   63.1450 C   0  0  0  0  0
   48.3960   43.7810   63.4230 O   0  0  0  0  0
   46.1870   43.2040   64.9080 C   0  0  0  0  0
   44.8910   42.8880   65.3920 O   0  0  0  0  0
   48.4360   41.8870   62.1910 N   0  0  0  0  0
   49.6240   42.2280   61.3970 C   0  0  0  0  0
   49.4520   43.4460   60.4880 C   0  0  0  0  0
   48.3420   44.0170   60.4680 O   0  0  0  0  0
   49.8810   40.9510   60.5980 C   0  0  0  0  0
   48.5200   40.3760   60.4300 C   0  0  0  0  0
   47.9370   40.5530   61.8120 C   0  0  0  0  0
   50.4589   43.8854   59.7383 O   0  0  0  0  0
   58.7401   13.7799   64.5212 H   0  0  0  0  0
   58.0124   12.2814   64.5666 H   0  0  0  0  0
   57.9116   13.2969   65.8840 H   0  0  0  0  0
   60.3582   12.0584   64.8173 H   0  0  0  0  0
   61.4640   12.9648   66.7824 H   0  0  0  0  0
   59.8677   13.7114   67.3098 H   0  0  0  0  0
   60.2182   15.4995   66.0745 H   0  0  0  0  0
   60.7290   14.5415   64.6759 H   0  0  0  0  0
   62.9241   14.2658   65.5785 H   0  0  0  0  0
   62.4191   15.0849   67.1147 H   0  0  0  0  0
   61.9448   16.9442   65.1529 H   0  0  0  0  0
   64.6918   14.9962   66.1587 H   0  0  0  0  0
   65.1921   18.2175   64.7931 H   0  0  0  0  0
   63.4686   18.5252   64.5569 H   0  0  0  0  0
   60.9791   11.7911   67.8176 H   0  0  0  0  0
   59.4051    9.2728   68.3214 H   0  0  0  0  0
   61.8067    8.8681   67.9440 H   0  0  0  0  0
   62.2093   10.0244   69.2370 H   0  0  0  0  0
   61.3471    8.5162   69.6281 H   0  0  0  0  0
   59.3918   12.4178   68.9858 H   0  0  0  0  0
   58.5366   12.0133   71.8087 H   0  0  0  0  0
   59.5006   14.2853   72.3331 H   0  0  0  0  0
   60.2942   14.2475   70.7245 H   0  0  0  0  0
   61.6624   13.4989   72.4176 H   0  0  0  0  0
   57.5964   14.3708   72.5341 H   0  0  0  0  0
   55.6560   15.1098   70.3889 H   0  0  0  0  0
   54.5496   13.6761   72.0746 H   0  0  0  0  0
   55.1070   14.7566   73.3758 H   0  0  0  0  0
   53.9233   15.3397   72.1800 H   0  0  0  0  0
   55.0481   17.1742   70.1414 H   0  0  0  0  0
   56.2347   19.1902   72.0095 H   0  0  0  0  0
   57.6928   18.9342   70.0474 H   0  0  0  0  0
   56.8667   20.5593   70.1003 H   0  0  0  0  0
   55.2149   19.6208   68.4950 H   0  0  0  0  0
   56.3170   18.2094   68.3092 H   0  0  0  0  0
   58.0531   19.5911   67.4783 H   0  0  0  0  0
   57.1294   21.0786   67.8677 H   0  0  0  0  0
   55.4064   20.4044   66.2705 H   0  0  0  0  0
   56.4204   18.9585   65.8370 H   0  0  0  0  0
   56.6516   20.7354   64.2650 H   0  0  0  0  0
   57.1578   21.7796   65.4608 H   0  0  0  0  0
   58.0870   20.4546   65.0635 H   0  0  0  0  0
   55.3296   21.4755   71.0787 H   0  0  0  0  0
   52.4004   21.0186   70.9586 H   0  0  0  0  0
   53.7604   23.6449   71.7040 H   0  0  0  0  0
   53.5050   22.8750   73.9209 H   0  0  0  0  0
   51.3335   23.7444   71.2656 H   0  0  0  0  0
   51.0588   22.4503   72.4576 H   0  0  0  0  0
   51.6735   24.0348   72.9893 H   0  0  0  0  0
   51.1893   21.5846   69.3483 H   0  0  0  0  0
   52.3406   23.2680   67.1364 H   0  0  0  0  0
   50.8211   22.2185   65.6627 H   0  0  0  0  0
   50.0540   21.3088   67.0561 H   0  0  0  0  0
   52.6382   19.9250   68.3467 H   0  0  0  0  0
   53.3571   18.4478   64.4113 H   0  0  0  0  0
   51.0891   25.1291   66.6561 H   0  0  0  0  0
   48.3795   25.3212   67.8493 H   0  0  0  0  0
   50.6947   27.1315   68.5450 H   0  0  0  0  0
   49.6881   26.0710   69.6684 H   0  0  0  0  0
   48.8359   28.0475   70.1706 H   0  0  0  0  0
   47.8278   27.6510   68.6977 H   0  0  0  0  0
   50.0013   30.2555   70.5083 H   0  0  0  0  0
   51.3369   29.3985   69.7004 H   0  0  0  0  0
   50.9235   31.0613   69.2155 H   0  0  0  0  0
   47.0309   26.5710   66.7717 H   0  0  0  0  0
   48.1626   28.2266   64.5437 H   0  0  0  0  0
   45.8790   26.2664   64.5519 H   0  0  0  0  0
   47.3150   26.3549   63.4462 H   0  0  0  0  0
   43.8846   27.3771   64.0110 H   0  0  0  0  0
   47.4651   28.2835   61.8366 H   0  0  0  0  0
   42.5813   28.7782   62.4343 H   0  0  0  0  0
   46.1684   29.6835   60.2661 H   0  0  0  0  0
   42.6627   30.0720   60.6361 H   0  0  0  0  0
   45.4171   31.1227   66.7413 H   0  0  0  0  0
   47.4338   32.5078   66.6914 H   0  0  0  0  0
   46.4356   33.3837   65.6365 H   0  0  0  0  0
   47.3316   32.2530   63.6316 H   0  0  0  0  0
   48.7114   32.5820   64.5819 H   0  0  0  0  0
   48.2783   30.0255   63.8909 H   0  0  0  0  0
   48.8167   30.3217   65.4743 H   0  0  0  0  0
   43.3755   31.0358   66.2836 H   0  0  0  0  0
   42.5072   31.1684   63.4809 H   0  0  0  0  0
   40.8318   31.2436   66.0117 H   0  0  0  0  0
   39.6877   32.0433   64.0034 H   0  0  0  0  0
   40.1772   30.5699   63.1313 H   0  0  0  0  0
   39.0598   30.4568   64.5131 H   0  0  0  0  0
   41.7043   28.9040   64.2668 H   0  0  0  0  0
   42.2653   29.2381   65.9235 H   0  0  0  0  0
   40.5603   28.8171   65.6287 H   0  0  0  0  0
   43.5028   33.2706   65.7948 H   0  0  0  0  0
   42.1520   35.6638   64.5484 H   0  0  0  0  0
   42.8470   35.2987   67.4537 H   0  0  0  0  0
   41.1682   35.2409   66.7271 H   0  0  0  0  0
   41.0117   37.3945   67.0984 H   0  0  0  0  0
   42.3724   37.6397   65.9101 H   0  0  0  0  0
   42.8776   38.8321   67.9113 H   0  0  0  0  0
   43.9367   37.3493   67.8284 H   0  0  0  0  0
   41.7201   36.6899   69.3850 H   0  0  0  0  0
   44.3905   38.9972   69.5145 H   0  0  0  0  0
   42.9701   37.7492   72.4834 H   0  0  0  0  0
   41.7871   36.7310   71.6557 H   0  0  0  0  0
   43.8762   36.6113   63.5000 H   0  0  0  0  0
   46.6093   35.9720   64.1543 H   0  0  0  0  0
   45.8367   36.6194   61.8975 H   0  0  0  0  0
   47.1630   37.6986   62.4957 H   0  0  0  0  0
   43.8624   39.8039   63.2568 H   0  0  0  0  0
   44.4795   38.4780   64.2480 H   0  0  0  0  0
   48.2266   37.9044   64.3346 H   0  0  0  0  0
   47.4880   39.2693   66.8647 H   0  0  0  0  0
   49.8435   39.7050   67.0751 H   0  0  0  0  0
   50.1217   39.1485   65.3655 H   0  0  0  0  0
   49.6129   36.6993   64.8349 H   0  0  0  0  0
   49.9916   38.1880   68.8381 H   0  0  0  0  0
   49.8780   34.3825   65.6761 H   0  0  0  0  0
   50.2516   35.8817   69.6800 H   0  0  0  0  0
   50.1689   33.0947   67.5014 H   0  0  0  0  0
   46.2601   40.1140   64.3614 H   0  0  0  0  0
   45.8814   42.0153   63.1326 H   0  0  0  0  0
   46.1508   44.1816   64.4272 H   0  0  0  0  0
   46.8821   43.2047   65.7476 H   0  0  0  0  0
   44.6195   43.5499   66.0321 H   0  0  0  0  0
   50.4560   42.5279   62.0342 H   0  0  0  0  0
   50.5660   40.2698   61.1027 H   0  0  0  0  0
   50.3769   41.1428   59.6465 H   0  0  0  0  0
   47.9372   40.8628   59.6480 H   0  0  0  0  0
   48.5259   39.3399   60.0914 H   0  0  0  0  0
   46.8498   40.4785   61.8330 H   0  0  0  0  0
   48.2345   39.7687   62.5081 H   0  0  0  0  0
   51.2286   43.3295   59.8805 H   0  0  0  0  0
  2  1  1  0  0  0
  2  5  1  0  0  0
  3  2  1  0  0  0
  3  4  2  0  0  0
  5  6  1  0  0  0
  6  7  1  0  0  0
  7  8  1  0  0  0
  8  9  1  0  0  0
  9 11  1  0  0  0
  9 10  2  0  0  0
 13 12  1  0  0  0
 13 16  1  0  0  0
 14 13  1  0  0  0
 14 15  2  0  0  0
 12  3  1  0  0  0
 18 17  1  0  0  0
 18 21  1  0  0  0
 19 18  1  0  0  0
 19 20  2  0  0  0
 21 22  1  0  0  0
 17 14  1  0  0  0
 24 23  1  0  0  0
 24 27  1  0  0  0
 25 24  1  0  0  0
 25 26  2  0  0  0
 23 19  1  0  0  0
 29 28  1  0  0  0
 29 32  1  0  0  0
 30 29  1  0  0  0
 30 31  2  0  0  0
 32 33  1  0  0  0
 33 34  1  0  0  0
 34 35  1  0  0  0
 35 36  1  0  0  0
 28 25  1  0  0  0
 38 37  1  0  0  0
 38 41  1  0  0  0
 39 38  1  0  0  0
 39 40  2  0  0  0
 41 43  1  0  0  0
 41 42  1  0  0  0
 37 30  1  0  0  0
 45 44  1  0  0  0
 45 48  1  0  0  0
 46 45  1  0  0  0
 46 47  2  0  0  0
 48 49  1  0  0  0
 49 50  4  0  0  0
 49 51  4  0  0  0
 51 53  4  0  0  0
 53 52  4  0  0  0
 50 52  4  0  0  0
 44 39  1  0  0  0
 55 54  1  0  0  0
 55 58  1  0  0  0
 56 55  1  0  0  0
 56 57  2  0  0  0
 58 59  1  0  0  0
 59 60  1  0  0  0
 60 61  1  0  0  0
 54 46  1  0  0  0
 63 62  1  0  0  0
 63 66  1  0  0  0
 64 63  1  0  0  0
 64 65  2  0  0  0
 66 67  1  0  0  0
 67 68  4  0  0  0
 67 69  4  0  0  0
 69 71  4  0  0  0
 71 72  4  0  0  0
 72 73  1  0  0  0
 70 72  4  0  0  0
 68 70  4  0  0  0
 62 56  1  0  0  0
 76 75  1  0  0  0
 75 78  1  0  0  0
 75 74  1  0  0  0
 74 80  1  0  0  0
 80 79  1  0  0  0
 78 79  1  0  0  0
 76 77  2  0  0  0
 74 64  1  0  0  0
 82 81  1  0  0  0
 82 85  1  0  0  0
 83 82  1  0  0  0
 83 84  2  0  0  0
 85 87  1  0  0  0
 85 86  1  0  0  0
 81 76  1  0  0  0
 89 88  1  0  0  0
 89 92  1  0  0  0
 90 89  1  0  0  0
 90 91  2  0  0  0
 92 93  1  0  0  0
 93 94  1  0  0  0
 94 95  1  0  0  0
 95 96  1  0  0  0
 96 98  1  0  0  0
 96 97  2  0  0  0
 88 83  1  0  0  0
100 99  1  0  0  0
100103  1  0  0  0
101100  1  0  0  0
101102  2  0  0  0
103104  1  0  0  0
104106  1  0  0  0
104105  2  0  0  0
 99 90  1  0  0  0
108107  1  0  0  0
108111  1  0  0  0
109108  1  0  0  0
109110  2  0  0  0
111112  1  0  0  0
112113  4  0  0  0
112114  4  0  0  0
114116  4  0  0  0
116117  4  0  0  0
117118  1  0  0  0
115117  4  0  0  0
113115  4  0  0  0
107101  1  0  0  0
120119  1  0  0  0
120123  1  0  0  0
121120  1  0  0  0
121122  2  0  0  0
123124  1  0  0  0
119109  1  0  0  0
126127  1  0  0  0
126129  1  0  0  0
125126  1  0  0  0
125131  1  0  0  0
131130  1  0  0  0
130129  1  0  0  0
127128  2  0  0  0
121125  1  0  0  0
127132  1  0  0  0
  1133  1  0  0  0
  1134  1  0  0  0
  1135  1  0  0  0
  2136  1  0  0  0
  5137  1  0  0  0
  5138  1  0  0  0
  6139  1  0  0  0
  6140  1  0  0  0
  7141  1  0  0  0
  7142  1  0  0  0
  8143  1  0  0  0
 10144  1  0  0  0
 11145  1  0  0  0
 11146  1  0  0  0
 12147  1  0  0  0
 13148  1  0  0  0
 16149  1  0  0  0
 16150  1  0  0  0
 16151  1  0  0  0
 17152  1  0  0  0
 18153  1  0  0  0
 21154  1  0  0  0
 21155  1  0  0  0
 22156  1  0  0  0
 23157  1  0  0  0
 24158  1  0  0  0
 27159  1  0  0  0
 27160  1  0  0  0
 27161  1  0  0  0
 28162  1  0  0  0
 29163  1  0  0  0
 32164  1  0  0  0
 32165  1  0  0  0
 33166  1  0  0  0
 33167  1  0  0  0
 34168  1  0  0  0
 34169  1  0  0  0
 35170  1  0  0  0
 35171  1  0  0  0
 36172  1  0  0  0
 36173  1  0  0  0
 36174  1  0  0  0
 37175  1  0  0  0
 38176  1  0  0  0
 41177  1  0  0  0
 42178  1  0  0  0
 43179  1  0  0  0
 43180  1  0  0  0
 43181  1  0  0  0
 44182  1  0  0  0
 45183  1  0  0  0
 48184  1  0  0  0
 48185  1  0  0  0
 51186  1  0  0  0
 52187  1  0  0  0
 54188  1  0  0  0
 55189  1  0  0  0
 58190  1  0  0  0
 58191  1  0  0  0
 59192  1  0  0  0
 59193  1  0  0  0
 61194  1  0  0  0
 61195  1  0  0  0
 61196  1  0  0  0
 62197  1  0  0  0
 63198  1  0  0  0
 66199  1  0  0  0
 66200  1  0  0  0
 68201  1  0  0  0
 69202  1  0  0  0
 70203  1  0  0  0
 71204  1  0  0  0
 73205  1  0  0  0
 75206  1  0  0  0
 78207  1  0  0  0
 78208  1  0  0  0
 79209  1  0  0  0
 79210  1  0  0  0
 80211  1  0  0  0
 80212  1  0  0  0
 81213  1  0  0  0
 82214  1  0  0  0
 85215  1  0  0  0
 86216  1  0  0  0
 86217  1  0  0  0
 86218  1  0  0  0
 87219  1  0  0  0
 87220  1  0  0  0
 87221  1  0  0  0
 88222  1  0  0  0
 89223  1  0  0  0
 92224  1  0  0  0
 92225  1  0  0  0
 93226  1  0  0  0
 93227  1  0  0  0
 94228  1  0  0  0
 94229  1  0  0  0
 95230  1  0  0  0
 97231  1  0  0  0
 98232  1  0  0  0
 98233  1  0  0  0
 99234  1  0  0  0
100235  1  0  0  0
103236  1  0  0  0
103237  1  0  0  0
106238  1  0  0  0
106239  1  0  0  0
107240  1  0  0  0
108241  1  0  0  0
111242  1  0  0  0
111243  1  0  0  0
113244  1  0  0  0
114245  1  0  0  0
115246  1  0  0  0
116247  1  0  0  0
118248  1  0  0  0
119249  1  0  0  0
120250  1  0  0  0
123251  1  0  0  0
123252  1  0  0  0
124253  1  0  0  0
126254  1  0  0  0
129255  1  0  0  0
129256  1  0  0  0
130257  1  0  0  0
130258  1  0  0  0
131259  1  0  0  0
131260  1  0  0  0
132261  1  0  0  0
M  END
$$$$
