### 
### Created by X-TOOL on Mon Sep 10 21:12:59 2018
### 

@<TRIPOS>MOLECULE
2emt_ligand
  264   268     1     0     0
SMALL
GAST_HUCK


@<TRIPOS>ATOM
      1 N          58.5060   12.9850   65.1160 N.4       1 ARG         0.2379
      2 CA         59.7680   12.3890   65.6720 C.3       1 ARG         0.0651
      3 C          59.4920   11.1850   66.5790 C.2       1 ARG         0.2267
      4 O          58.6170   10.3630   66.2820 O.2       1 ARG        -0.3907
      5 CB         60.5210   13.4240   66.4860 C.3       1 ARG         0.0110
      6 CG         60.8680   14.6880   65.7470 C.3       1 ARG        -0.0125
      7 CD         62.2960   15.0320   66.0330 C.3       1 ARG         0.0629
      8 NE         62.6810   16.3160   65.4750 N.pl3     1 ARG        -0.2723
      9 CZ         63.9400   16.7130   65.3630 C.cat     1 ARG         0.2882
     10 NH1        64.9140   15.9110   65.7660 N.pl3     1 ARG        -0.2849
     11 NH2        64.2220   17.9110   64.8660 N.pl3     1 ARG        -0.2849
     12 N          60.2580   11.0850   67.6700 N.am      1 LEU        -0.2613
     13 CA         60.1210   10.0190   68.6660 C.3       1 LEU         0.1283
     14 C          59.6400   10.6580   69.9710 C.2       1 LEU         0.2037
     15 O          59.5610    9.9950   71.0120 O.2       1 LEU        -0.3944
     16 CB         61.4710    9.3040   68.8850 C.3       1 LEU        -0.0244
     17 N          59.3050   11.9500   69.8880 N.am      1 SER        -0.2616
     18 CA         58.8190   12.7250   71.0330 C.3       1 SER         0.1539
     19 C          57.5900   13.5560   70.6730 C.2       1 SER         0.2062
     20 O          57.0720   13.4690   69.5550 O.2       1 SER        -0.3943
     21 CB         59.9170   13.6480   71.5530 C.3       1 SER         0.0843
     22 OG         60.9840   12.9000   72.0970 O.3       1 SER        -0.3903
     23 N          57.1190   14.3500   71.6330 N.am      1 ARG        -0.2639
     24 CA         55.9400   15.1930   71.4380 C.3       1 ARG         0.1282
     25 C          56.2210   16.6680   71.7160 C.2       1 ARG         0.2036
     26 O          56.9420   17.0120   72.6510 O.2       1 ARG        -0.3944
     27 CB         54.7970   14.7060   72.3320 C.3       1 ARG        -0.0244
     28 N          55.6370   17.5310   70.8940 N.am      1 LYS        -0.2637
     29 CA         55.8090   18.9680   71.0310 C.3       1 LYS         0.1310
     30 C          54.4520   19.6510   70.8960 C.2       1 LYS         0.2040
     31 O          53.4310   18.9870   70.7290 O.2       1 LYS        -0.3944
     32 CB         56.7570   19.4850   69.9520 C.3       1 LYS        -0.0122
     33 CG         56.2460   19.2710   68.5460 C.3       1 LYS        -0.0440
     34 CD         57.0620   20.0400   67.5440 C.3       1 LYS        -0.0124
     35 CE         56.4120   19.9950   66.1740 C.3       1 LYS        -0.0354
     36 NZ         57.1340   20.8050   65.1610 N.4       1 LYS         0.2185
     37 N          54.4470   20.9790   70.9570 N.am      1 THR        -0.2613
     38 CA         53.2090   21.7420   70.8540 C.3       1 THR         0.1565
     39 C          53.0250   22.4300   69.4860 C.2       1 THR         0.2066
     40 O          53.9190   23.1210   68.9850 O.2       1 THR        -0.3943
     41 CB         53.1260   22.8060   71.9900 C.3       1 THR         0.0924
     42 OG1        53.5560   22.2200   73.2210 O.3       1 THR        -0.3874
     43 CG2        51.6950   23.2940   72.1900 C.3       1 THR        -0.0346
     44 N          51.8570   22.2010   68.8850 N.am      1 HIS        -0.2618
     45 CA         51.4810   22.7840   67.6000 C.3       1 HIS         0.1421
     46 C          50.3380   23.7220   67.9160 C.2       1 HIS         0.2060
     47 O          49.4420   23.3830   68.6810 O.2       1 HIS        -0.3942
     48 CB         50.9640   21.7250   66.6240 C.3       1 HIS         0.0427
     49 CG         51.9040   20.5830   66.3960 C.2       1 HIS         0.0561
     50 ND1        52.1630   20.0790   65.1380 N.pl3     1 HIS        -0.2623
     51 CD2        52.6040   19.8130   67.2630 C.2       1 HIS        -0.0276
     52 CE1        52.9800   19.0470   65.2400 C.2       1 HIS         0.0875
     53 NE2        53.2630   18.8640   66.5190 N.2       1 HIS        -0.3437
     54 N          50.3470   24.8960   67.3160 N.am      1 MET        -0.2636
     55 CA         49.2980   25.8520   67.5990 C.3       1 MET         0.1317
     56 C          49.0140   26.7070   66.3810 C.2       1 MET         0.2040
     57 O          49.9240   27.1090   65.6610 O.2       1 MET        -0.3944
     58 CB         49.7170   26.7170   68.7910 C.3       1 MET        -0.0034
     59 CG         48.8150   27.8920   69.0920 C.3       1 MET        -0.0024
     60 SD         49.3430   29.4510   68.3110 S.3       1 MET        -0.1639
     61 CE         50.5220   30.1090   69.5620 C.3       1 MET        -0.0181
     62 N          47.7340   26.9610   66.1440 N.am      1 TYR        -0.2621
     63 CA         47.3000   27.7700   65.0290 C.3       1 TYR         0.1392
     64 C          46.3580   28.8240   65.5600 C.2       1 TYR         0.2082
     65 O          45.3460   28.4930   66.1920 O.2       1 TYR        -0.3940
     66 CB         46.5690   26.9140   64.0110 C.3       1 TYR         0.0164
     67 CG         45.7680   27.7300   63.0360 C.ar      1 TYR        -0.0493
     68 CD1        44.3930   27.8810   63.1890 C.ar      1 TYR        -0.0685
     69 CD2        46.3890   28.3890   61.9740 C.ar      1 TYR        -0.0685
     70 CE1        43.6580   28.6680   62.3050 C.ar      1 TYR        -0.0398
     71 CE2        45.6650   29.1760   61.0890 C.ar      1 TYR        -0.0398
     72 CZ         44.3040   29.3100   61.2600 C.ar      1 TYR         0.0805
     73 OH         43.5890   30.0790   60.3840 O.3       1 TYR        -0.3376
     74 N          46.6810   30.1110   65.3290 N.am      1 PRO        -0.2497
     75 CA         45.8820   31.2670   65.7660 C.3       1 PRO         0.1338
     76 C          44.7110   31.5340   64.8310 C.2       1 PRO         0.2041
     77 O          44.9050   31.9110   63.6840 O.2       1 PRO        -0.3944
     78 CB         46.8930   32.4010   65.7510 C.3       1 PRO        -0.0104
     79 CG         47.7770   32.0210   64.5990 C.3       1 PRO        -0.0281
     80 CD         47.9880   30.5470   64.8030 C.3       1 PRO         0.0369
     81 N          43.4920   31.3400   65.3170 N.am      1 VAL        -0.2635
     82 CA         42.3170   31.5580   64.4810 C.3       1 VAL         0.1332
     83 C          42.0430   33.0430   64.4250 C.2       1 VAL         0.2041
     84 O          41.1690   33.5100   63.7000 O.2       1 VAL        -0.3944
     85 CB         41.0970   30.8200   65.0430 C.3       1 VAL        -0.0063
     86 CG1        39.9230   30.9840   64.1070 C.3       1 VAL        -0.0584
     87 CG2        41.4310   29.3370   65.2290 C.3       1 VAL        -0.0584
     88 N          42.8220   33.7660   65.2190 N.am      1 ARG        -0.2637
     89 CA         42.7730   35.2190   65.3260 C.3       1 ARG         0.1311
     90 C          44.2320   35.6470   65.2530 C.2       1 ARG         0.2040
     91 O          45.0340   35.3070   66.1290 O.2       1 ARG        -0.3944
     92 CB         42.1750   35.6550   66.6730 C.3       1 ARG        -0.0092
     93 CG         42.0490   37.1780   66.8430 C.3       1 ARG        -0.0156
     94 CD         42.9310   37.7450   67.9700 C.3       1 ARG         0.0627
     95 NE         42.4900   37.3550   69.3130 N.pl3     1 ARG        -0.2723
     96 CZ         43.0250   37.8090   70.4460 C.cat     1 ARG         0.2882
     97 NH1        44.0260   38.6750   70.4110 N.pl3     1 ARG        -0.2849
     98 NH2        42.5580   37.3980   71.6190 N.pl3     1 ARG        -0.2849
     99 N          44.5810   36.3710   64.1970 N.am      1 ASN        -0.2616
    100 CA         45.9490   36.8280   64.0150 C.3       1 ASN         0.1476
    101 C          46.3250   37.8910   65.0440 C.2       1 ASN         0.2064
    102 O          45.4910   38.3370   65.8290 O.2       1 ASN        -0.3942
    103 CB         46.1230   37.3930   62.6100 C.3       1 ASN         0.0773
    104 CG         45.2490   38.6040   62.3630 C.2       1 ASN         0.1780
    105 OD1        45.2760   39.1870   61.2820 O.2       1 ASN        -0.3970
    106 ND2        44.4700   38.9920   63.3670 N.am      1 ASN        -0.3007
    107 N          47.5860   38.3030   65.0210 N.am      1 TYR        -0.2620
    108 CA         48.0780   39.3080   65.9490 C.3       1 TYR         0.1390
    109 C          47.9370   40.6980   65.3460 C.2       1 TYR         0.2058
    110 O          48.7450   41.5820   65.6150 O.2       1 TYR        -0.3942
    111 CB         49.5440   39.0210   66.2810 C.3       1 TYR         0.0163
    112 CG         49.7760   37.6100   66.7780 C.ar      1 TYR        -0.0493
    113 CD1        49.7510   36.5250   65.9020 C.ar      1 TYR        -0.0685
    114 CD2        49.9620   37.3540   68.1370 C.ar      1 TYR        -0.0685
    115 CE1        49.9000   35.2220   66.3710 C.ar      1 TYR        -0.0398
    116 CE2        50.1100   36.0600   68.6140 C.ar      1 TYR        -0.0398
    117 CZ         50.0770   35.0000   67.7320 C.ar      1 TYR         0.0805
    118 OH         50.2110   33.7230   68.2260 O.3       1 TYR        -0.3376
    119 N          46.9030   40.8870   64.5330 N.am      1 SER        -0.2614
    120 CA         46.6610   42.1680   63.8790 C.3       1 SER         0.1541
    121 C          47.9090   42.6820   63.1450 C.2       1 SER         0.2088
    122 O          48.3960   43.7810   63.4230 O.2       1 SER        -0.3941
    123 CB         46.1870   43.2040   64.9080 C.3       1 SER         0.0843
    124 OG         44.8910   42.8880   65.3920 O.3       1 SER        -0.3903
    125 N          48.4360   41.8870   62.1910 N.am      1 PRO        -0.2484
    126 CA         49.6240   42.2280   61.3970 C.3       1 PRO         0.1448
    127 C          49.4520   43.4460   60.4880 C.2       1 PRO         0.2573
    128 O          48.3420   44.0170   60.4680 O.2       1 PRO        -0.3680
    129 CB         49.8810   40.9510   60.5980 C.3       1 PRO        -0.0090
    130 CG         48.5200   40.3760   60.4300 C.3       1 PRO        -0.0280
    131 CD         47.9370   40.5530   61.8120 C.3       1 PRO         0.0371
    132 O1         50.4589   43.8854   59.7383 O.3       1 PRO        -0.2910
    133 H1         58.7362   13.7707   64.5280 H         1 ARG         0.2015
    134 H2         57.9178   13.2937   65.8741 H         1 ARG         0.2015
    135 H3         58.0173   12.2906   64.5728 H         1 ARG         0.2015
    136 H4         60.3968   12.0622   64.8307 H         1 ARG         0.1098
    137 H5         61.4577   12.9662   66.8366 H         1 ARG         0.0347
    138 H6         59.8989   13.6953   67.3517 H         1 ARG         0.0347
    139 H7         60.2150   15.5061   66.0851 H         1 ARG         0.0302
    140 H8         60.7333   14.5342   64.6662 H         1 ARG         0.0302
    141 H9         62.9402   14.2521   65.6007 H         1 ARG         0.0689
    142 H10        62.4397   15.0638   67.1231 H         1 ARG         0.0689
    143 H11        61.9376   16.9504   65.1497 H         1 ARG         0.2642
    144 H12        65.8958   16.2111   65.6829 H         1 ARG         0.2615
    145 H13        64.6896   14.9872   66.1625 H         1 ARG         0.2615
    146 H14        63.4612   18.5312   64.5539 H         1 ARG         0.2615
    147 H15        65.2017   18.2205   64.7924 H         1 ARG         0.2615
    148 H16        60.9650   11.7773   67.8147 H         1 LEU         0.1884
    149 H17        59.3786    9.2850   68.3194 H         1 LEU         0.0797
    150 H18        61.3473    8.5087   69.6348 H         1 LEU         0.0277
    151 H19        62.2171   10.0300   69.2403 H         1 LEU         0.0277
    152 H20        61.8109    8.8636   67.9361 H         1 LEU         0.0277
    153 H21        59.3901   12.4087   69.0035 H         1 SER         0.1884
    154 H22        58.5414   12.0216   71.8318 H         1 SER         0.0823
    155 H23        59.4996   14.3012   72.3335 H         1 SER         0.0606
    156 H24        60.2942   14.2633   70.7229 H         1 SER         0.0606
    157 H25        61.6553   13.4926   72.4142 H         1 SER         0.2097
    158 H26        57.5871   14.3704   72.5165 H         1 ARG         0.1883
    159 H27        55.6262   15.0993   70.3879 H         1 ARG         0.0797
    160 H28        53.9146   15.3448   72.1795 H         1 ARG         0.0277
    161 H29        55.1086   14.7566   73.3857 H         1 ARG         0.0277
    162 H30        54.5463   13.6667   72.0732 H         1 ARG         0.0277
    163 H31        55.0597   17.1812   70.1562 H         1 LYS         0.1883
    164 H32        56.2323   19.1909   72.0215 H         1 LYS         0.0800
    165 H33        57.7197   18.9631   70.0555 H         1 LYS         0.0312
    166 H34        56.9061   20.5637   70.1076 H         1 LYS         0.0312
    167 H35        55.2002   19.6074   68.4899 H         1 LYS         0.0269
    168 H36        56.2998   18.1992   68.3046 H         1 LYS         0.0269
    169 H37        58.0671   19.5975   67.4813 H         1 LYS         0.0317
    170 H38        57.1421   21.0871   67.8712 H         1 LYS         0.0317
    171 H39        55.3845   20.3779   66.2610 H         1 LYS         0.0813
    172 H40        56.3861   18.9496   65.8328 H         1 LYS         0.0813
    173 H41        56.6581   20.7369   64.2750 H         1 LYS         0.1994
    174 H42        58.0760   20.4596   65.0638 H         1 LYS         0.1994
    175 H43        57.1582   21.7685   65.4562 H         1 LYS         0.1994
    176 H44        55.3123   21.4658   71.0763 H         1 THR         0.1884
    177 H45        52.3759   21.0357   70.9849 H         1 THR         0.0826
    178 H46        53.7728   23.6582   71.7344 H         1 THR         0.0639
    179 H47        54.4475   21.9058   73.1264 H         1 THR         0.2101
    180 H48        51.6720   24.0417   72.9965 H         1 THR         0.0257
    181 H49        51.0519   22.4435   72.4602 H         1 THR         0.0257
    182 H50        51.3290   23.7489   71.2577 H         1 THR         0.0257
    183 H51        51.2024   21.5967   69.3393 H         1 HIS         0.1885
    184 H52        52.3312   23.3225   67.1558 H         1 HIS         0.0824
    185 H53        50.7738   22.2124   65.6564 H         1 HIS         0.0491
    186 H54        50.0218   21.3207   67.0224 H         1 HIS         0.0491
    187 H55        51.7790   20.4499   64.2571 H         1 HIS         0.2386
    188 H56        52.6381   19.9249   68.3457 H         1 HIS         0.0324
    189 H57        53.3568   18.4483   64.4120 H         1 HIS         0.1149
    190 H58        51.0745   25.1245   66.6691 H         1 MET         0.1883
    191 H59        48.3806   25.3056   67.8631 H         1 MET         0.0800
    192 H60        50.7254   27.1072   68.5887 H         1 MET         0.0320
    193 H61        49.7448   26.0740   69.6831 H         1 MET         0.0320
    194 H62        48.7932   28.0411   70.1816 H         1 MET         0.0378
    195 H63        47.8029   27.6516   68.7345 H         1 MET         0.0378
    196 H64        50.9279   31.0701   69.2134 H         1 MET         0.0340
    197 H65        51.3450   29.3928   69.7026 H         1 MET         0.0340
    198 H66        49.9977   30.2574   70.5176 H         1 MET         0.0340
    199 H67        47.0447   26.5787   66.7594 H         1 TYR         0.1885
    200 H68        48.1695   28.2467   64.5530 H         1 TYR         0.0821
    201 H69        45.8876   26.2359   64.5457 H         1 TYR         0.0453
    202 H70        47.3092   26.3236   63.4511 H         1 TYR         0.0453
    203 H71        43.8874   27.3798   64.0065 H         1 TYR         0.0530
    204 H72        47.4592   28.2841   61.8374 H         1 TYR         0.0530
    205 H73        42.5873   28.7776   62.4336 H         1 TYR         0.0525
    206 H74        46.1656   29.6807   60.2706 H         1 TYR         0.0525
    207 H75        42.6723   30.0721   60.6335 H         1 TYR         0.2458
    208 H76        45.4946   31.1076   66.7831 H         1 PRO         0.0802
    209 H77        47.4603   32.4423   66.6925 H         1 PRO         0.0313
    210 H78        46.4031   33.3701   65.5752 H         1 PRO         0.0313
    211 H79        47.2802   32.2195   63.6379 H         1 PRO         0.0287
    212 H80        48.7319   32.5657   64.6376 H         1 PRO         0.0287
    213 H81        48.2233   30.0434   63.8538 H         1 PRO         0.0524
    214 H82        48.7927   30.3567   65.5284 H         1 PRO         0.0524
    215 H83        43.3778   31.0417   66.2646 H         1 VAL         0.1883
    216 H84        42.5212   31.1858   63.4662 H         1 VAL         0.0802
    217 H85        40.8357   31.2516   66.0204 H         1 VAL         0.0343
    218 H86        39.0511   30.4523   64.5158 H         1 VAL         0.0234
    219 H87        40.1783   30.5664   63.1219 H         1 VAL         0.0234
    220 H88        39.6845   32.0526   64.0017 H         1 VAL         0.0234
    221 H89        42.2870   29.2369   65.9126 H         1 VAL         0.0234
    222 H90        41.6857   28.8935   64.2551 H         1 VAL         0.0234
    223 H91        40.5603   28.8154   65.6530 H         1 VAL         0.0234
    224 H92        43.4894   33.2803   65.7835 H         1 ARG         0.1883
    225 H93        42.1894   35.6534   64.5010 H         1 ARG         0.0800
    226 H94        42.8193   35.2703   67.4773 H         1 ARG         0.0313
    227 H95        41.1716   35.2135   66.7641 H         1 ARG         0.0313
    228 H96        40.9993   37.4176   67.0684 H         1 ARG         0.0301
    229 H97        42.3401   37.6592   65.8976 H         1 ARG         0.0301
    230 H98        42.9162   38.8429   67.9043 H         1 ARG         0.0689
    231 H99        43.9591   37.3827   67.8227 H         1 ARG         0.0689
    232 H100       41.7125   36.6833   69.3857 H         1 ARG         0.2642
    233 H101       44.4366   39.0233   71.2891 H         1 ARG         0.2615
    234 H102       44.3941   39.0003   69.5057 H         1 ARG         0.2615
    235 H103       41.7796   36.7245   71.6561 H         1 ARG         0.2615
    236 H104       42.9741   37.7527   72.4919 H         1 ARG         0.2615
    237 H105       43.8900   36.6066   63.5136 H         1 ASN         0.1885
    238 H106       46.6234   35.9678   64.1385 H         1 ASN         0.0826
    239 H107       45.8601   36.6129   61.8804 H         1 ASN         0.0551
    240 H108       47.1753   37.6830   62.4736 H         1 ASN         0.0551
    241 H109       43.8723   39.7863   63.2580 H         1 ASN         0.1814
    242 H110       44.4814   38.4897   64.2316 H         1 ASN         0.1814
    243 H111       48.2140   37.9122   64.3481 H         1 TYR         0.1885
    244 H112       47.4855   39.2609   66.8746 H         1 TYR         0.0821
    245 H113       49.8704   39.7247   67.0609 H         1 TYR         0.0453
    246 H114       50.1452   39.1753   65.3728 H         1 TYR         0.0453
    247 H115       49.6136   36.6983   64.8408 H         1 TYR         0.0530
    248 H116       49.9914   38.1834   68.8343 H         1 TYR         0.0530
    249 H117       49.8781   34.3871   65.6799 H         1 TYR         0.0525
    250 H118       50.2508   35.8827   69.6741 H         1 TYR         0.0525
    251 H119       50.1693   33.1012   67.5089 H         1 TYR         0.2458
    252 H120       46.2727   40.1291   64.3648 H         1 SER         0.1884
    253 H121       45.8627   42.0262   63.1356 H         1 SER         0.0823
    254 H122       46.1611   44.1959   64.4333 H         1 SER         0.0606
    255 H123       46.8917   43.2199   65.7525 H         1 SER         0.0606
    256 H124       44.6223   43.5431   66.0254 H         1 SER         0.2097
    257 H125       50.4705   42.4283   62.0703 H         1 PRO         0.0818
    258 H126       50.5342   40.2625   61.1540 H         1 PRO         0.0314
    259 H127       50.3354   41.1805   59.6229 H         1 PRO         0.0314
    260 H128       47.9410   40.9308   59.6770 H         1 PRO         0.0287
    261 H129       48.5661   39.3138   60.1477 H         1 PRO         0.0287
    262 H130       46.8375   40.5306   61.7870 H         1 PRO         0.0524
    263 H131       48.3040   39.7789   62.5019 H         1 PRO         0.0524
    264 H132       50.6647   44.7809   59.9797 H         1 PRO         0.2540
@<TRIPOS>BOND
     1    2    1 1  
     2    2    5 1  
     3    3    2 1  
     4    3    4 2  
     5    5    6 1  
     6    6    7 1  
     7    7    8 1  
     8    8    9 ar 
     9    9   11 ar 
    10    9   10 ar 
    11   13   12 1  
    12   13   16 1  
    13   14   13 1  
    14   14   15 2  
    15   12    3 am 
    16   18   17 1  
    17   18   21 1  
    18   19   18 1  
    19   19   20 2  
    20   21   22 1  
    21   17   14 am 
    22   24   23 1  
    23   24   27 1  
    24   25   24 1  
    25   25   26 2  
    26   23   19 am 
    27   29   28 1  
    28   29   32 1  
    29   30   29 1  
    30   30   31 2  
    31   32   33 1  
    32   33   34 1  
    33   34   35 1  
    34   35   36 1  
    35   28   25 am 
    36   38   37 1  
    37   38   41 1  
    38   39   38 1  
    39   39   40 2  
    40   41   43 1  
    41   41   42 1  
    42   37   30 am 
    43   45   44 1  
    44   45   48 1  
    45   46   45 1  
    46   46   47 2  
    47   48   49 1  
    48   49   50 1  
    49   49   51 2  
    50   51   53 1  
    51   53   52 2  
    52   50   52 1  
    53   44   39 am 
    54   55   54 1  
    55   55   58 1  
    56   56   55 1  
    57   56   57 2  
    58   58   59 1  
    59   59   60 1  
    60   60   61 1  
    61   54   46 am 
    62   63   62 1  
    63   63   66 1  
    64   64   63 1  
    65   64   65 2  
    66   66   67 1  
    67   67   68 ar 
    68   67   69 ar 
    69   69   71 ar 
    70   71   72 ar 
    71   72   73 1  
    72   70   72 ar 
    73   68   70 ar 
    74   62   56 am 
    75   76   75 1  
    76   75   78 1  
    77   75   74 1  
    78   74   80 1  
    79   80   79 1  
    80   78   79 1  
    81   76   77 2  
    82   74   64 am 
    83   82   81 1  
    84   82   85 1  
    85   83   82 1  
    86   83   84 2  
    87   85   87 1  
    88   85   86 1  
    89   81   76 am 
    90   89   88 1  
    91   89   92 1  
    92   90   89 1  
    93   90   91 2  
    94   92   93 1  
    95   93   94 1  
    96   94   95 1  
    97   95   96 ar 
    98   96   98 ar 
    99   96   97 ar 
   100   88   83 am 
   101  100   99 1  
   102  100  103 1  
   103  101  100 1  
   104  101  102 2  
   105  103  104 1  
   106  104  106 am 
   107  104  105 2  
   108   99   90 am 
   109  108  107 1  
   110  108  111 1  
   111  109  108 1  
   112  109  110 2  
   113  111  112 1  
   114  112  113 ar 
   115  112  114 ar 
   116  114  116 ar 
   117  116  117 ar 
   118  117  118 1  
   119  115  117 ar 
   120  113  115 ar 
   121  107  101 am 
   122  120  119 1  
   123  120  123 1  
   124  121  120 1  
   125  121  122 2  
   126  123  124 1  
   127  119  109 am 
   128  126  127 1  
   129  126  129 1  
   130  125  126 1  
   131  125  131 1  
   132  131  130 1  
   133  130  129 1  
   134  127  128 2  
   135  121  125 am 
   136  127  132 1  
   137    1  133 1  
   138    1  134 1  
   139    1  135 1  
   140    2  136 1  
   141    5  137 1  
   142    5  138 1  
   143    6  139 1  
   144    6  140 1  
   145    7  141 1  
   146    7  142 1  
   147    8  143 1  
   148   10  144 1  
   149   10  145 1  
   150   11  146 1  
   151   11  147 1  
   152   12  148 1  
   153   13  149 1  
   154   16  150 1  
   155   16  151 1  
   156   16  152 1  
   157   17  153 1  
   158   18  154 1  
   159   21  155 1  
   160   21  156 1  
   161   22  157 1  
   162   23  158 1  
   163   24  159 1  
   164   27  160 1  
   165   27  161 1  
   166   27  162 1  
   167   28  163 1  
   168   29  164 1  
   169   32  165 1  
   170   32  166 1  
   171   33  167 1  
   172   33  168 1  
   173   34  169 1  
   174   34  170 1  
   175   35  171 1  
   176   35  172 1  
   177   36  173 1  
   178   36  174 1  
   179   36  175 1  
   180   37  176 1  
   181   38  177 1  
   182   41  178 1  
   183   42  179 1  
   184   43  180 1  
   185   43  181 1  
   186   43  182 1  
   187   44  183 1  
   188   45  184 1  
   189   48  185 1  
   190   48  186 1  
   191   50  187 1  
   192   51  188 1  
   193   52  189 1  
   194   54  190 1  
   195   55  191 1  
   196   58  192 1  
   197   58  193 1  
   198   59  194 1  
   199   59  195 1  
   200   61  196 1  
   201   61  197 1  
   202   61  198 1  
   203   62  199 1  
   204   63  200 1  
   205   66  201 1  
   206   66  202 1  
   207   68  203 1  
   208   69  204 1  
   209   70  205 1  
   210   71  206 1  
   211   73  207 1  
   212   75  208 1  
   213   78  209 1  
   214   78  210 1  
   215   79  211 1  
   216   79  212 1  
   217   80  213 1  
   218   80  214 1  
   219   81  215 1  
   220   82  216 1  
   221   85  217 1  
   222   86  218 1  
   223   86  219 1  
   224   86  220 1  
   225   87  221 1  
   226   87  222 1  
   227   87  223 1  
   228   88  224 1  
   229   89  225 1  
   230   92  226 1  
   231   92  227 1  
   232   93  228 1  
   233   93  229 1  
   234   94  230 1  
   235   94  231 1  
   236   95  232 1  
   237   97  233 1  
   238   97  234 1  
   239   98  235 1  
   240   98  236 1  
   241   99  237 1  
   242  100  238 1  
   243  103  239 1  
   244  103  240 1  
   245  106  241 1  
   246  106  242 1  
   247  107  243 1  
   248  108  244 1  
   249  111  245 1  
   250  111  246 1  
   251  113  247 1  
   252  114  248 1  
   253  115  249 1  
   254  116  250 1  
   255  118  251 1  
   256  119  252 1  
   257  120  253 1  
   258  123  254 1  
   259  123  255 1  
   260  124  256 1  
   261  126  257 1  
   262  129  258 1  
   263  129  259 1  
   264  130  260 1  
   265  130  261 1  
   266  131  262 1  
   267  131  263 1  
   268  132  264 1  
@<TRIPOS>SUBSTRUCTURE
     1 ARG         1

