5y1y_ligand
  -I-interpret- 

 20 21  0  0  0  0  0  0  0  0999 V2000
   -9.7280   -5.8630   -0.8420 C   0  0  0  0  0
   -8.3610   -6.3540   -1.0440 N   0  0  0  0  0
   -7.8950   -6.2220   -2.1300 O   0  0  0  0  0
  -10.1080   -4.8040   -1.6310 C   0  0  0  0  0
  -12.8360   -6.3400    0.9700 N   0  0  0  0  0
   -7.7250   -6.8740   -0.1860 O   0  0  0  0  0
  -11.3690   -4.2550   -1.5470 C   0  0  0  0  0
  -13.5650   -4.2360   -0.5840 O   0  0  0  0  0
  -12.2820   -4.7870   -0.6590 C   0  0  0  0  0
  -11.9230   -5.8640    0.1390 C   0  0  0  0  0
  -12.5890   -7.3590    1.7890 C   0  0  0  0  0
  -11.3460   -7.9570    1.7710 C   0  0  0  0  0
  -10.3760   -7.4810    0.9060 C   0  0  0  0  0
  -10.6450   -6.4170    0.0600 C   0  0  0  0  0
   -9.3937   -4.3877   -2.3413 H   0  0  0  0  0
  -11.6431   -3.4082   -2.1762 H   0  0  0  0  0
  -14.0780   -4.7109    0.0739 H   0  0  0  0  0
  -13.3621   -7.7182    2.4683 H   0  0  0  0  0
  -11.1298   -8.7965    2.4318 H   0  0  0  0  0
   -9.3910   -7.9476    0.8901 H   0  0  0  0  0
  1  2  1  0  0  0
  4  1  4  0  0  0
  1 14  4  0  0  0
  2  3  2  0  0  0
  2  6  2  0  0  0
  7  4  4  0  0  0
 10  5  4  0  0  0
  5 11  4  0  0  0
  9  7  4  0  0  0
  9  8  1  0  0  0
  9 10  4  0  0  0
 10 14  4  0  0  0
 11 12  4  0  0  0
 12 13  4  0  0  0
 13 14  4  0  0  0
  4 15  1  0  0  0
  7 16  1  0  0  0
  8 17  1  0  0  0
 11 18  1  0  0  0
 12 19  1  0  0  0
 13 20  1  0  0  0
M  END
$$$$
