6bid_ligand
  -I-interpret- 

 83 86  0  0  0  0  0  0  0  0999 V2000
   85.1950  -48.5280  140.8210 C   0  0  0  0  0
   85.8010  -49.3260  141.4630 O   0  0  0  0  0
   84.4020  -47.5180  141.3750 O   0  0  0  0  0
   84.1840  -47.5880  142.7600 C   0  0  0  0  0
   85.1380  -46.6110  143.4480 C   0  0  0  0  0
   85.7990  -46.9880  144.6050 C   0  0  0  0  0
   86.6600  -46.1000  145.2370 C   0  0  0  0  0
   86.8520  -44.8380  144.7100 C   0  0  0  0  0
   86.1840  -44.4600  143.5530 C   0  0  0  0  0
   85.3240  -45.3460  142.9260 C   0  0  0  0  0
   83.4470  -46.8610  134.7920 N   0  0  0  0  0
   82.1510  -47.3720  134.3560 C   0  0  0  0  0
   82.0750  -48.9040  134.4450 C   0  0  0  0  0
   82.5630  -49.3850  135.7290 N   0  0  0  0  0
   86.5350  -47.8880  137.1330 O   0  0  0  0  0
   86.7750  -48.9690  137.5690 C   0  0  0  0  0
   85.9870  -49.5950  138.7260 C   0  0  0  0  0
   85.0830  -50.7110  138.2250 C   0  0  0  0  0
   83.8960  -50.1960  137.4270 C   0  0  0  0  0
   83.8120  -49.7800  136.0480 C   0  0  0  0  0
   81.8740  -49.5530  136.8390 N   0  0  0  0  0
   82.6430  -50.0220  137.8280 N   0  0  0  0  0
   85.2440  -48.5400  139.3740 N   0  0  0  0  0
   88.2850  -47.6470  134.0860 N   0  0  0  0  0
   87.6220  -47.1760  132.8740 C   0  0  0  0  0
   86.8470  -45.9020  133.2030 C   0  0  0  0  0
   85.8450  -46.1110  134.3160 C   0  0  0  0  0
   84.5020  -46.6580  133.8140 C   0  0  0  0  0
   84.3110  -46.9260  132.6670 O   0  0  0  0  0
   88.6800  -46.9020  131.8170 C   0  0  0  0  0
   89.3690  -48.0840  131.4980 O   0  0  0  0  0
   87.8670  -49.7710  137.0510 N   0  0  0  0  0
   88.6830  -49.2360  135.9920 C   0  0  0  0  0
   87.8670  -48.8760  134.7530 C   0  0  0  0  0
   86.9750  -49.5530  134.3530 O   0  0  0  0  0
   89.7400  -50.2540  135.5760 C   0  0  0  0  0
   90.7840  -50.5620  136.6650 C   0  0  0  0  0
   91.8060  -51.4270  135.9990 C   0  0  0  0  0
   92.9520  -51.8050  136.9130 C   0  0  0  0  0
   93.6220  -50.5630  137.5400 C   0  0  0  0  0
   92.6360  -49.4660  138.0420 C   0  0  0  0  0
   91.4260  -49.2740  137.1180 C   0  0  0  0  0
   84.3674  -48.6018  143.1159 H   0  0  0  0  0
   83.1513  -47.3250  142.9890 H   0  0  0  0  0
   85.6433  -47.9836  145.0206 H   0  0  0  0  0
   87.1824  -46.3982  146.1460 H   0  0  0  0  0
   87.5279  -44.1388  145.2023 H   0  0  0  0  0
   86.3368  -43.4640  143.1374 H   0  0  0  0  0
   84.7947  -45.0454  142.0218 H   0  0  0  0  0
   83.6107  -46.6480  135.7760 H   0  0  0  0  0
   82.0044  -47.0839  133.3150 H   0  0  0  0  0
   81.3838  -46.9548  135.0083 H   0  0  0  0  0
   82.6970  -49.3282  133.6568 H   0  0  0  0  0
   81.0336  -49.2063  134.3347 H   0  0  0  0  0
   86.6626  -50.0551  139.4471 H   0  0  0  0  0
   84.6951  -51.2415  139.0946 H   0  0  0  0  0
   85.6742  -51.3495  137.5686 H   0  0  0  0  0
   84.6514  -49.7845  135.3527 H   0  0  0  0  0
   84.7669  -47.8230  138.8275 H   0  0  0  0  0
   89.0570  -47.1057  134.4751 H   0  0  0  0  0
   86.9266  -47.9247  132.4945 H   0  0  0  0  0
   86.3015  -45.5978  132.3097 H   0  0  0  0  0
   87.5616  -45.1462  133.5289 H   0  0  0  0  0
   85.6577  -45.1435  134.7819 H   0  0  0  0  0
   86.2640  -46.8406  135.0090 H   0  0  0  0  0
   89.3891  -46.1707  132.2048 H   0  0  0  0  0
   88.1948  -46.5198  130.9189 H   0  0  0  0  0
   90.0328  -47.8959  130.8305 H   0  0  0  0  0
   88.0539  -50.6990  137.4308 H   0  0  0  0  0
   89.1436  -48.3299  136.3856 H   0  0  0  0  0
   90.2767  -49.8311  134.7268 H   0  0  0  0  0
   89.2195  -51.1863  135.3570 H   0  0  0  0  0
   90.3437  -51.0476  137.5359 H   0  0  0  0  0
   92.2214  -50.8645  135.1629 H   0  0  0  0  0
   91.3104  -52.3479  135.6916 H   0  0  0  0  0
   93.6994  -52.3352  136.3228 H   0  0  0  0  0
   92.5569  -52.4236  137.7188 H   0  0  0  0  0
   94.2305  -50.1060  136.7596 H   0  0  0  0  0
   94.1762  -50.9108  138.4118 H   0  0  0  0  0
   93.1802  -48.5221  138.0748 H   0  0  0  0  0
   92.2615  -49.7788  139.0167 H   0  0  0  0  0
   90.6749  -48.7210  137.6820 H   0  0  0  0  0
   91.7814  -48.7601  136.2249 H   0  0  0  0  0
  1  2  2  0  0  0
  1  3  1  0  0  0
 23  1  1  0  0  0
  3  4  1  0  0  0
  4  5  1  0  0  0
  5  6  4  0  0  0
  5 10  4  0  0  0
  6  7  4  0  0  0
  7  8  4  0  0  0
  9  8  4  0  0  0
 10  9  4  0  0  0
 11 12  1  0  0  0
 28 11  1  0  0  0
 12 13  1  0  0  0
 13 14  1  0  0  0
 14 20  4  0  0  0
 14 21  4  0  0  0
 16 15  2  0  0  0
 17 16  1  0  0  0
 16 32  1  0  0  0
 18 17  1  0  0  0
 17 23  1  0  0  0
 19 18  1  0  0  0
 20 19  4  0  0  0
 22 19  4  0  0  0
 21 22  4  0  0  0
 25 24  1  0  0  0
 24 34  1  0  0  0
 26 25  1  0  0  0
 25 30  1  0  0  0
 27 26  1  0  0  0
 27 28  1  0  0  0
 28 29  2  0  0  0
 30 31  1  0  0  0
 32 33  1  0  0  0
 33 34  1  0  0  0
 33 36  1  0  0  0
 34 35  2  0  0  0
 36 37  1  0  0  0
 37 38  1  0  0  0
 37 42  1  0  0  0
 38 39  1  0  0  0
 39 40  1  0  0  0
 40 41  1  0  0  0
 41 42  1  0  0  0
  4 43  1  0  0  0
  4 44  1  0  0  0
  6 45  1  0  0  0
  7 46  1  0  0  0
  8 47  1  0  0  0
  9 48  1  0  0  0
 10 49  1  0  0  0
 11 50  1  0  0  0
 12 51  1  0  0  0
 12 52  1  0  0  0
 13 53  1  0  0  0
 13 54  1  0  0  0
 17 55  1  0  0  0
 18 56  1  0  0  0
 18 57  1  0  0  0
 20 58  1  0  0  0
 23 59  1  0  0  0
 24 60  1  0  0  0
 25 61  1  0  0  0
 26 62  1  0  0  0
 26 63  1  0  0  0
 27 64  1  0  0  0
 27 65  1  0  0  0
 30 66  1  0  0  0
 30 67  1  0  0  0
 31 68  1  0  0  0
 32 69  1  0  0  0
 33 70  1  0  0  0
 36 71  1  0  0  0
 36 72  1  0  0  0
 37 73  1  0  0  0
 38 74  1  0  0  0
 38 75  1  0  0  0
 39 76  1  0  0  0
 39 77  1  0  0  0
 40 78  1  0  0  0
 40 79  1  0  0  0
 41 80  1  0  0  0
 41 81  1  0  0  0
 42 82  1  0  0  0
 42 83  1  0  0  0
M  END
$$$$
