4u71_ligand
  -I-interpret- 

 29 29  0  0  0  0  0  0  0  0999 V2000
    2.5960   -3.3340   12.7750 O   0  0  0  0  0
    1.2630   -2.6880   12.8350 P   0  0  0  0  0
    1.3750   -1.2780   13.6390 O   0  0  0  0  0
    0.5620   -2.4180   11.4360 O   0  0  0  0  0
    0.1920   -3.6720   13.9460 C   0  0  0  0  0
   -0.8500   -2.8140   14.4610 N   0  3  0  0  0
   -0.2440   -5.0340   13.3540 C   0  0  0  0  0
   -1.5950   -4.9630   12.6780 C   0  0  0  0  0
   -1.9170   -6.2640   12.0050 C   0  0  0  0  0
   -1.4160   -7.5060   12.6880 C   0  0  0  0  0
   -0.1040   -7.4430   13.3600 C   0  0  0  0  0
   -0.1220   -6.1940   14.1990 C   0  0  0  0  0
    0.5104   -0.8625   13.6760 H   0  0  0  0  0
   -0.2898   -2.0000   11.5816 H   0  0  0  0  0
    0.7618   -4.0151   14.8095 H   0  0  0  0  0
   -0.4346   -1.9542   14.8196 H   0  0  0  0  0
   -1.5053   -2.5898   13.7122 H   0  0  0  0  0
   -1.3433   -3.2943   15.2136 H   0  0  0  0  0
    0.5200   -5.2102   12.5968 H   0  0  0  0  0
   -1.5735   -4.1728   11.9275 H   0  0  0  0  0
   -2.3562   -4.7565   13.4304 H   0  0  0  0  0
   -1.4270   -6.2329   11.0318 H   0  0  0  0  0
   -3.0043   -6.3401   11.9938 H   0  0  0  0  0
   -1.3009   -8.2460   11.8960 H   0  0  0  0  0
   -2.1371   -7.7130   13.4787 H   0  0  0  0  0
    0.7086   -7.4172   12.6340 H   0  0  0  0  0
    0.0657   -8.3270   13.9747 H   0  0  0  0  0
   -0.9720   -6.2321   14.8803 H   0  0  0  0  0
    0.8073   -6.1290   14.7649 H   0  0  0  0  0
  1  2  2  0  0  0
  2  3  1  0  0  0
  2  4  1  0  0  0
  2  5  1  0  0  0
  5  6  1  0  0  0
  5  7  1  0  0  0
  7  8  1  0  0  0
  7 12  1  0  0  0
  8  9  1  0  0  0
  9 10  1  0  0  0
 10 11  1  0  0  0
 11 12  1  0  0  0
  3 13  1  0  0  0
  4 14  1  0  0  0
  5 15  1  0  0  0
  6 16  1  0  0  0
  6 17  1  0  0  0
  6 18  1  0  0  0
  7 19  1  0  0  0
  8 20  1  0  0  0
  8 21  1  0  0  0
  9 22  1  0  0  0
  9 23  1  0  0  0
 10 24  1  0  0  0
 10 25  1  0  0  0
 11 26  1  0  0  0
 11 27  1  0  0  0
 12 28  1  0  0  0
 12 29  1  0  0  0
M  END
$$$$
