5lpd_ligand
  -I-interpret- 

 64 66  0  0  0  0  0  0  0  0999 V2000
   20.9830  -12.4960   26.0640 C   0  0  0  0  0
   22.1140  -13.3560   25.5120 C   0  0  0  0  0
   21.8210  -13.7780   24.0850 C   0  0  0  0  0
   17.8480  -12.7030   21.4060 N   0  0  0  0  0
   20.4790  -14.4940   23.9860 C   0  0  0  0  0
   17.0990  -13.1600   22.4210 C   0  0  0  0  0
   15.4490  -10.1450   20.7530 N   0  0  0  0  0
   19.0200  -13.3520   20.7940 C   0  0  0  0  0
   19.6030  -12.2670   19.9150 C   0  0  0  0  0
   18.3960  -11.4280   19.5090 C   0  0  0  0  0
   17.5320  -11.4150   20.7770 C   0  0  0  0  0
   13.0340  -13.4180   21.8520 N   0  3  0  0  0
   16.0460  -11.3000   20.4360 C   0  0  0  0  0
   14.0410   -9.9210   20.4470 C   0  0  0  0  0
   13.1590   -9.9230   21.6670 C   0  0  0  0  0
   16.1410  -12.5260   22.8420 O   0  0  0  0  0
   17.4480  -14.5460   23.0420 C   0  0  0  0  0
   18.0020  -14.3510   24.4540 C   0  0  0  0  0
   19.3420  -13.6250   24.5130 C   0  0  0  0  0
   19.6470  -13.2160   25.9420 C   0  0  0  0  0
   16.2110  -15.3310   23.1360 N   0  3  0  0  0
   15.4480  -12.2330   19.8920 O   0  0  0  0  0
   12.3370  -11.0260   21.9580 C   0  0  0  0  0
   12.3980  -12.2940   21.1630 C   0  0  0  0  0
   11.4670  -10.9580   23.0420 C   0  0  0  0  0
   11.4050   -9.8290   23.8360 C   0  0  0  0  0
   12.2440   -8.7740   23.5580 C   0  0  0  0  0
   12.2200   -7.3600   24.5760 Cl  0  0  0  0  0
   13.1120   -8.8110   22.4960 C   0  0  0  0  0
   20.9359  -11.5687   25.4930 H   0  0  0  0  0
   21.1778  -12.2929   27.1170 H   0  0  0  0  0
   22.2111  -14.2486   26.1300 H   0  0  0  0  0
   23.0362  -12.7751   25.5248 H   0  0  0  0  0
   22.6045  -14.4608   23.7564 H   0  0  0  0  0
   21.7865  -12.8865   23.4588 H   0  0  0  0  0
   20.5268  -15.4020   24.5871 H   0  0  0  0  0
   20.2842  -14.7191   22.9374 H   0  0  0  0  0
   15.9862   -9.4113   21.2150 H   0  0  0  0  0
   18.7565  -14.2487   20.2330 H   0  0  0  0  0
   19.7308  -13.7172   21.5352 H   0  0  0  0  0
   20.1302  -12.6746   19.0525 H   0  0  0  0  0
   20.3584  -11.6775   20.4346 H   0  0  0  0  0
   17.8701  -11.8391   18.6473 H   0  0  0  0  0
   18.6729  -10.4265   19.1798 H   0  0  0  0  0
   17.7350  -10.5647   21.4281 H   0  0  0  0  0
   13.0320  -14.2348   21.2411 H   0  0  0  0  0
   13.9950  -13.1708   22.0880 H   0  0  0  0  0
   12.5166  -13.6289   22.7053 H   0  0  0  0  0
   13.7109  -10.7341   19.8005 H   0  0  0  0  0
   13.9572   -8.9390   19.9815 H   0  0  0  0  0
   18.1883  -15.0529   22.4230 H   0  0  0  0  0
   18.1584  -15.3441   24.8753 H   0  0  0  0  0
   17.2828  -13.7378   24.9970 H   0  0  0  0  0
   19.2647  -12.7419   23.8788 H   0  0  0  0  0
   18.8638  -12.5341   26.2732 H   0  0  0  0  0
   19.6929  -14.1195   26.5500 H   0  0  0  0  0
   15.8268  -15.4711   22.2016 H   0  0  0  0  0
   16.4154  -16.2359   23.5600 H   0  0  0  0  0
   15.5344  -14.8295   23.7115 H   0  0  0  0  0
   11.3691  -12.5892   20.9572 H   0  0  0  0  0
   12.9977  -12.0845   20.2772 H   0  0  0  0  0
   10.8243  -11.8088   23.2682 H   0  0  0  0  0
   10.7035   -9.7748   24.6685 H   0  0  0  0  0
   13.7682   -7.9624   22.3024 H   0  0  0  0  0
  1  2  1  0  0  0
 20  1  1  0  0  0
  3  2  1  0  0  0
  5  3  1  0  0  0
  4  6  1  0  0  0
  4  8  1  0  0  0
 11  4  1  0  0  0
 19  5  1  0  0  0
  6 16  2  0  0  0
  6 17  1  0  0  0
  7 13  1  0  0  0
 14  7  1  0  0  0
  9  8  1  0  0  0
 10  9  1  0  0  0
 11 10  1  0  0  0
 13 11  1  0  0  0
 24 12  1  0  0  0
 13 22  2  0  0  0
 15 14  1  0  0  0
 23 15  4  0  0  0
 15 29  4  0  0  0
 17 18  1  0  0  0
 17 21  1  0  0  0
 18 19  1  0  0  0
 19 20  1  0  0  0
 23 24  1  0  0  0
 23 25  4  0  0  0
 25 26  4  0  0  0
 26 27  4  0  0  0
 27 28  1  0  0  0
 27 29  4  0  0  0
  1 30  1  0  0  0
  1 31  1  0  0  0
  2 32  1  0  0  0
  2 33  1  0  0  0
  3 34  1  0  0  0
  3 35  1  0  0  0
  5 36  1  0  0  0
  5 37  1  0  0  0
  7 38  1  0  0  0
  8 39  1  0  0  0
  8 40  1  0  0  0
  9 41  1  0  0  0
  9 42  1  0  0  0
 10 43  1  0  0  0
 10 44  1  0  0  0
 11 45  1  0  0  0
 12 46  1  0  0  0
 12 47  1  0  0  0
 12 48  1  0  0  0
 14 49  1  0  0  0
 14 50  1  0  0  0
 17 51  1  0  0  0
 18 52  1  0  0  0
 18 53  1  0  0  0
 19 54  1  0  0  0
 20 55  1  0  0  0
 20 56  1  0  0  0
 21 57  1  0  0  0
 21 58  1  0  0  0
 21 59  1  0  0  0
 24 60  1  0  0  0
 24 61  1  0  0  0
 25 62  1  0  0  0
 26 63  1  0  0  0
 29 64  1  0  0  0
M  END
$$$$
