1tsm_ligand
  -I-interpret- 

 46 50  0  0  0  0  0  0  0  0999 V2000
   19.1400   52.3650  -54.5110 C   0  0  0  0  0
   19.2490   51.3070  -53.6750 C   0  0  0  0  0
   19.1820   49.9760  -54.2220 C   0  0  0  0  0
   19.1520   48.8770  -53.3460 C   0  0  0  0  0
   19.2090   49.0770  -51.9510 C   0  0  0  0  0
   19.3070   50.4360  -51.4290 C   0  0  0  0  0
   19.2630   50.6410  -49.9950 C   0  0  0  0  0
   19.1980   52.0120  -49.4880 C   0  0  0  0  0
   19.2130   53.0780  -50.3440 C   0  0  0  0  0
   19.2950   52.8300  -51.8180 C   0  0  0  0  0
   19.3150   51.5100  -52.3070 C   0  0  0  0  0
   19.1620   53.9250  -52.7170 C   0  0  0  0  0
   17.9460   54.6200  -52.4750 C   0  0  0  0  0
   16.7900   53.9210  -51.9750 C   0  0  0  0  0
   15.6380   54.6100  -51.6260 C   0  0  0  0  0
   15.5790   55.9860  -51.8940 C   0  0  0  0  0
   16.6990   56.6870  -52.3590 C   0  0  0  0  0
   17.8610   56.0240  -52.6880 C   0  0  0  0  0
   20.2990   54.8550  -52.7160 C   0  0  0  0  0
   20.9020   55.2200  -53.9520 C   0  0  0  0  0
   21.9710   56.1140  -54.0190 C   0  0  0  0  0
   22.4350   56.7200  -52.8440 C   0  0  0  0  0
   21.7880   56.4720  -51.6250 C   0  0  0  0  0
   20.7650   55.5330  -51.5290 C   0  0  0  0  0
   19.2800   49.4160  -48.9600 N   0  0  0  0  0
   19.0840   53.5120  -54.1160 O   0  0  0  0  0
   19.1240   52.1170  -55.7070 O   0  0  0  0  0
   14.3100   56.6030  -51.8670 O   0  0  0  0  0
   23.6010   57.5340  -52.8860 O   0  0  0  0  0
   18.8190   49.6150  -47.8250 O   0  0  0  0  0
   19.7410   48.4290  -49.3730 O   0  0  0  0  0
   19.1549   49.8231  -55.3009 H   0  0  0  0  0
   19.0844   47.8656  -53.7467 H   0  0  0  0  0
   19.1802   48.2260  -51.2706 H   0  0  0  0  0
   19.1368   52.1858  -48.4137 H   0  0  0  0  0
   19.1658   54.0962  -49.9578 H   0  0  0  0  0
   16.8210   52.8366  -51.8696 H   0  0  0  0  0
   14.8000   54.0957  -51.1556 H   0  0  0  0  0
   16.6506   57.7711  -52.4619 H   0  0  0  0  0
   18.7065   56.5695  -53.1072 H   0  0  0  0  0
   20.5167   54.7876  -54.8754 H   0  0  0  0  0
   22.4408   56.3389  -54.9765 H   0  0  0  0  0
   22.0918   57.0248  -50.7361 H   0  0  0  0  0
   20.3169   55.3100  -50.5607 H   0  0  0  0  0
   14.4055   57.5375  -52.0651 H   0  0  0  0  0
   23.7855   57.8725  -52.0068 H   0  0  0  0  0
  1  2  1  0  0  0
  1 26  1  0  0  0
  1 27  2  0  0  0
  2  3  4  0  0  0
  2 11  4  0  0  0
  3  4  4  0  0  0
  4  5  4  0  0  0
  5  6  4  0  0  0
  6  7  4  0  0  0
  6 11  4  0  0  0
  7  8  4  0  0  0
  7 25  1  0  0  0
  8  9  4  0  0  0
  9 10  4  0  0  0
 10 11  4  0  0  0
 10 12  1  0  0  0
 12 13  1  0  0  0
 12 19  1  0  0  0
 12 26  1  0  0  0
 13 14  4  0  0  0
 13 18  4  0  0  0
 14 15  4  0  0  0
 15 16  4  0  0  0
 16 17  4  0  0  0
 16 28  1  0  0  0
 17 18  4  0  0  0
 19 20  4  0  0  0
 19 24  4  0  0  0
 20 21  4  0  0  0
 21 22  4  0  0  0
 22 23  4  0  0  0
 22 29  1  0  0  0
 23 24  4  0  0  0
 25 30  2  0  0  0
 25 31  2  0  0  0
  3 32  1  0  0  0
  4 33  1  0  0  0
  5 34  1  0  0  0
  8 35  1  0  0  0
  9 36  1  0  0  0
 14 37  1  0  0  0
 15 38  1  0  0  0
 17 39  1  0  0  0
 18 40  1  0  0  0
 20 41  1  0  0  0
 21 42  1  0  0  0
 23 43  1  0  0  0
 24 44  1  0  0  0
 28 45  1  0  0  0
 29 46  1  0  0  0
M  END
$$$$
