6bnt_ligand
  -I-interpret- 

109110  0  0  0  0  0  0  0  0999 V2000
   36.5000  -53.9520  -19.8770 N   0  3  0  0  0
   35.4350  -54.4670  -20.7450 C   0  0  0  0  0
   34.9990  -53.4640  -21.8740 C   0  0  0  0  0
   35.6480  -52.4250  -22.0540 O   0  0  0  0  0
   34.2720  -54.9130  -19.8720 C   0  0  0  0  0
   33.9870  -53.9270  -18.7430 C   0  0  0  0  0
   33.2170  -54.2630  -17.8270 O   0  0  0  0  0
   34.5240  -52.8060  -18.7930 O   0  0  0  0  0
   34.0060  -53.8050  -22.7070 N   0  0  0  0  0
   33.6310  -52.8340  -23.7090 C   0  0  0  0  0
   33.1300  -51.4950  -23.1390 C   0  0  0  0  0
   33.8620  -50.7090  -22.4980 O   0  0  0  0  0
   31.8150  -51.2810  -23.3330 N   0  0  0  0  0
   31.0560  -50.0430  -23.2480 C   0  0  0  0  0
   30.0690  -50.0670  -22.0900 C   0  0  0  0  0
   29.8360  -51.0860  -21.4450 O   0  0  0  0  0
   30.2820  -49.8050  -24.5430 C   0  0  0  0  0
   31.0310  -49.9450  -25.8270 C   0  0  0  0  0
   31.4650  -51.1610  -26.2940 C   0  0  0  0  0
   31.2380  -48.8320  -26.6110 C   0  0  0  0  0
   32.1390  -51.2470  -27.4990 C   0  0  0  0  0
   31.8880  -48.8960  -27.8060 C   0  0  0  0  0
   32.3530  -50.1010  -28.2450 C   0  0  0  0  0
   33.0320  -50.1670  -29.4470 O   0  0  0  0  0
   29.3720  -48.9610  -21.9390 N   0  0  0  0  0
   28.2410  -48.7590  -21.0540 C   0  0  0  0  0
   27.0750  -48.2440  -21.8910 C   0  0  0  0  0
   27.2760  -47.6300  -22.9490 O   0  0  0  0  0
   28.5870  -47.7450  -19.9610 C   0  0  0  0  0
   29.1020  -46.5320  -20.6490 C   0  0  0  0  0
   29.5840  -45.0930  -19.7270 S   0  0  0  0  0
   29.0420  -43.8860  -20.9390 C   0  0  0  0  0
   25.8380  -48.4800  -21.4410 N   0  0  0  0  0
   24.6820  -48.2450  -22.3100 C   0  0  0  0  0
   24.2840  -46.7870  -22.3160 C   0  0  0  0  0
   24.3090  -46.1070  -21.2860 O   0  0  0  0  0
   23.5870  -49.1090  -21.6840 C   0  0  0  0  0
   23.9570  -49.2030  -20.2760 C   0  0  0  0  0
   25.4340  -49.0800  -20.1590 C   0  0  0  0  0
   23.9220  -46.3200  -23.5010 N   0  0  0  0  0
   23.6370  -44.9250  -23.7340 C   0  0  0  0  0
   22.4770  -44.4080  -22.9050 C   0  0  0  0  0
   21.3880  -45.0070  -22.9370 O   0  0  0  0  0
   23.3720  -44.7370  -25.2110 C   0  0  0  0  0
   23.9260  -43.4830  -25.7590 C   0  0  0  0  0
   24.2260  -43.7260  -27.4970 S   0  0  0  0  0
   24.4990  -42.0740  -28.0650 C   0  0  0  0  0
   22.7510  -43.3400  -22.1330 N   0  0  0  0  0
   21.7550  -42.6040  -21.3130 C   0  0  0  0  0
   20.8000  -43.5260  -20.5360 C   0  0  0  0  0
   19.7280  -43.9710  -21.3850 O   0  0  0  0  0
   22.2920  -41.5290  -20.3760 C   0  0  0  0  0
   21.5040  -40.8280  -19.7520 O   0  0  0  0  0
   18.8610  -42.7920  -22.1250 P   0  0  0  0  0
   19.7040  -42.1130  -23.3500 O   0  0  0  0  0
   18.4580  -41.6590  -21.0150 O   0  0  0  0  0
   17.5650  -43.5150  -22.8040 O   0  0  0  0  0
   23.5030  -41.3830  -20.2610 O   0  0  0  0  0
   37.2874  -53.6489  -20.4502 H   0  0  0  0  0
   36.1457  -53.1615  -19.3386 H   0  0  0  0  0
   36.8047  -54.6889  -19.2409 H   0  0  0  0  0
   35.8241  -55.3235  -21.2955 H   0  0  0  0  0
   34.5316  -55.8731  -19.4261 H   0  0  0  0  0
   33.3826  -54.9769  -20.4989 H   0  0  0  0  0
   35.0773  -52.7521  -19.5757 H   0  0  0  0  0
   33.5368  -54.7080  -22.6368 H   0  0  0  0  0
   32.8101  -53.2655  -24.2817 H   0  0  0  0  0
   34.5238  -52.6183  -24.2959 H   0  0  0  0  0
   31.2708  -52.1090  -23.5753 H   0  0  0  0  0
   31.7729  -49.2385  -23.0835 H   0  0  0  0  0
   29.9564  -48.7655  -24.5043 H   0  0  0  0  0
   29.5084  -50.5725  -24.5686 H   0  0  0  0  0
   31.2775  -52.0634  -25.7122 H   0  0  0  0  0
   30.8691  -47.8671  -26.2633 H   0  0  0  0  0
   32.4991  -52.2109  -27.8586 H   0  0  0  0  0
   32.0348  -47.9964  -28.4037 H   0  0  0  0  0
   33.0905  -49.2882  -29.8289 H   0  0  0  0  0
   29.6574  -48.1613  -22.5042 H   0  0  0  0  0
   27.9777  -49.6986  -20.5683 H   0  0  0  0  0
   29.3339  -48.1503  -19.2784 H   0  0  0  0  0
   27.7089  -47.5070  -19.3607 H   0  0  0  0  0
   28.2589  -46.1909  -21.2498 H   0  0  0  0  0
   30.0268  -46.8671  -21.1186 H   0  0  0  0  0
   29.5781  -44.0463  -21.8744 H   0  0  0  0  0
   27.9712  -43.9988  -21.1085 H   0  0  0  0  0
   29.2486  -42.8822  -20.5678 H   0  0  0  0  0
   24.8809  -48.4946  -23.3522 H   0  0  0  0  0
   23.5204  -50.0895  -22.1555 H   0  0  0  0  0
   22.5965  -48.6743  -21.8182 H   0  0  0  0  0
   23.6333  -50.1624  -19.8725 H   0  0  0  0  0
   23.4743  -48.4040  -19.7133 H   0  0  0  0  0
   25.7339  -48.4741  -19.3040 H   0  0  0  0  0
   25.9178  -50.0400  -19.9789 H   0  0  0  0  0
   23.8414  -46.9728  -24.2805 H   0  0  0  0  0
   24.5022  -44.3405  -23.4211 H   0  0  0  0  0
   22.2910  -44.7019  -25.3461 H   0  0  0  0  0
   23.8530  -45.5624  -25.7359 H   0  0  0  0  0
   24.8548  -43.2275  -25.2490 H   0  0  0  0  0
   23.2225  -42.6639  -25.6095 H   0  0  0  0  0
   23.6125  -41.4717  -27.8663 H   0  0  0  0  0
   25.3544  -41.6477  -27.5410 H   0  0  0  0  0
   24.6977  -42.0878  -29.1366 H   0  0  0  0  0
   23.7162  -43.0110  -22.1093 H   0  0  0  0  0
   21.2054  -42.0717  -22.0893 H   0  0  0  0  0
   20.3801  -42.9736  -19.6954 H   0  0  0  0  0
   21.3557  -44.3945  -20.1825 H   0  0  0  0  0
   20.6055  -41.0869  -19.9695 H   0  0  0  0  0
   20.4808  -41.6729  -22.9971 H   0  0  0  0  0
   19.2570  -41.2701  -20.6517 H   0  0  0  0  0
  1  2  1  0  0  0
  2  3  1  0  0  0
  2  5  1  0  0  0
  3  4  2  0  0  0
  3  9  1  0  0  0
  5  6  1  0  0  0
  6  7  2  0  0  0
  6  8  1  0  0  0
  9 10  1  0  0  0
 10 11  1  0  0  0
 11 12  2  0  0  0
 11 13  1  0  0  0
 13 14  1  0  0  0
 14 15  1  0  0  0
 14 17  1  0  0  0
 15 16  2  0  0  0
 15 25  1  0  0  0
 17 18  1  0  0  0
 18 19  4  0  0  0
 18 20  4  0  0  0
 19 21  4  0  0  0
 20 22  4  0  0  0
 21 23  4  0  0  0
 22 23  4  0  0  0
 23 24  1  0  0  0
 25 26  1  0  0  0
 26 27  1  0  0  0
 26 29  1  0  0  0
 27 28  2  0  0  0
 27 33  1  0  0  0
 29 30  1  0  0  0
 30 31  1  0  0  0
 31 32  1  0  0  0
 33 34  1  0  0  0
 33 39  1  0  0  0
 34 35  1  0  0  0
 34 37  1  0  0  0
 35 36  2  0  0  0
 35 40  1  0  0  0
 37 38  1  0  0  0
 38 39  1  0  0  0
 40 41  1  0  0  0
 41 42  1  0  0  0
 41 44  1  0  0  0
 42 43  2  0  0  0
 42 48  1  0  0  0
 44 45  1  0  0  0
 45 46  1  0  0  0
 46 47  1  0  0  0
 48 49  1  0  0  0
 49 50  1  0  0  0
 49 52  1  0  0  0
 50 51  1  0  0  0
 51 54  1  0  0  0
 52 53  1  0  0  0
 52 58  2  0  0  0
 54 55  1  0  0  0
 54 56  1  0  0  0
 54 57  2  0  0  0
  1 59  1  0  0  0
  1 60  1  0  0  0
  1 61  1  0  0  0
  2 62  1  0  0  0
  5 63  1  0  0  0
  5 64  1  0  0  0
  8 65  1  0  0  0
  9 66  1  0  0  0
 10 67  1  0  0  0
 10 68  1  0  0  0
 13 69  1  0  0  0
 14 70  1  0  0  0
 17 71  1  0  0  0
 17 72  1  0  0  0
 19 73  1  0  0  0
 20 74  1  0  0  0
 21 75  1  0  0  0
 22 76  1  0  0  0
 24 77  1  0  0  0
 25 78  1  0  0  0
 26 79  1  0  0  0
 29 80  1  0  0  0
 29 81  1  0  0  0
 30 82  1  0  0  0
 30 83  1  0  0  0
 32 84  1  0  0  0
 32 85  1  0  0  0
 32 86  1  0  0  0
 34 87  1  0  0  0
 37 88  1  0  0  0
 37 89  1  0  0  0
 38 90  1  0  0  0
 38 91  1  0  0  0
 39 92  1  0  0  0
 39 93  1  0  0  0
 40 94  1  0  0  0
 41 95  1  0  0  0
 44 96  1  0  0  0
 44 97  1  0  0  0
 45 98  1  0  0  0
 45 99  1  0  0  0
 47100  1  0  0  0
 47101  1  0  0  0
 47102  1  0  0  0
 48103  1  0  0  0
 49104  1  0  0  0
 50105  1  0  0  0
 50106  1  0  0  0
 53107  1  0  0  0
 55108  1  0  0  0
 56109  1  0  0  0
M  END
$$$$
