### 
### Created by X-TOOL on Mon Aug  2 16:17:03 2021
### 

@<TRIPOS>MOLECULE
6bnt_ligand
  105   106     1     0     0
SMALL
GAST_HUCK


@<TRIPOS>ATOM
      1 N          36.5000  -53.9520  -19.8770 N.4       1 ASP         0.2391
      2 CA         35.4350  -54.4670  -20.7450 C.3       1 ASP         0.0764
      3 C          34.9990  -53.4640  -21.8740 C.2       1 ASP         0.2282
      4 O          35.6480  -52.4250  -22.0540 O.2       1 ASP        -0.3906
      5 CB         34.2720  -54.9130  -19.8720 C.3       1 ASP         0.0607
      6 CG         33.9870  -53.9270  -18.7430 C.2       1 ASP         0.0425
      7 OD1        33.2170  -54.2630  -17.8270 O.co2     1 ASP        -0.5686
      8 OD2        34.5240  -52.8060  -18.7930 O.co2     1 ASP        -0.5686
      9 N          34.0060  -53.8050  -22.7070 N.am      1 ASP        -0.2636
     10 CA         33.6310  -52.8340  -23.7090 C.3       1 ASP         0.1203
     11 C          33.1300  -51.4950  -23.1390 C.2       1 ASP         0.2009
     12 O          33.8620  -50.7090  -22.4980 O.2       1 ASP        -0.3947
     13 N          31.8150  -51.2810  -23.3330 N.am      1 ASP        -0.2624
     14 CA         31.0560  -50.0430  -23.2480 C.3       1 ASP         0.1390
     15 C          30.0690  -50.0670  -22.0900 C.2       1 ASP         0.2057
     16 O          29.8360  -51.0860  -21.4450 O.2       1 ASP        -0.3942
     17 CB         30.2820  -49.8050  -24.5430 C.3       1 ASP         0.0163
     18 CG         31.0310  -49.9450  -25.8270 C.ar      1 ASP        -0.0493
     19 CD1        31.4650  -51.1610  -26.2940 C.ar      1 ASP        -0.0685
     20 CD2        31.2380  -48.8320  -26.6110 C.ar      1 ASP        -0.0685
     21 CE1        32.1390  -51.2470  -27.4990 C.ar      1 ASP        -0.0398
     22 CE2        31.8880  -48.8960  -27.8060 C.ar      1 ASP        -0.0398
     23 CZ         32.3530  -50.1010  -28.2450 C.ar      1 ASP         0.0805
     24 OH         33.0320  -50.1670  -29.4470 O.3       1 ASP        -0.3376
     25 N          29.3720  -48.9610  -21.9390 N.am      1 ASP        -0.2636
     26 CA         28.2410  -48.7590  -21.0540 C.3       1 ASP         0.1319
     27 C          27.0750  -48.2440  -21.8910 C.2       1 ASP         0.2064
     28 O          27.2760  -47.6300  -22.9490 O.2       1 ASP        -0.3942
     29 CB         28.5870  -47.7450  -19.9610 C.3       1 ASP        -0.0034
     30 CG         29.1020  -46.5320  -20.6490 C.3       1 ASP        -0.0024
     31 SD         29.5840  -45.0930  -19.7270 S.3       1 ASP        -0.1639
     32 CE         29.0420  -43.8860  -20.9390 C.3       1 ASP        -0.0181
     33 N          25.8380  -48.4800  -21.4410 N.am      1 ASP        -0.2498
     34 CA         24.6820  -48.2450  -22.3100 C.3       1 ASP         0.1338
     35 C          24.2840  -46.7870  -22.3160 C.2       1 ASP         0.2041
     36 O          24.3090  -46.1070  -21.2860 O.2       1 ASP        -0.3944
     37 CB         23.5870  -49.1090  -21.6840 C.3       1 ASP        -0.0104
     38 CG         23.9570  -49.2030  -20.2760 C.3       1 ASP        -0.0281
     39 CD         25.4340  -49.0800  -20.1590 C.3       1 ASP         0.0369
     40 N          23.9220  -46.3200  -23.5010 N.am      1 ASP        -0.2637
     41 CA         23.6370  -44.9250  -23.7340 C.3       1 ASP         0.1317
     42 C          22.4770  -44.4080  -22.9050 C.2       1 ASP         0.2034
     43 O          21.3880  -45.0070  -22.9370 O.2       1 ASP        -0.3944
     44 CB         23.3720  -44.7370  -25.2110 C.3       1 ASP        -0.0034
     45 CG         23.9260  -43.4830  -25.7590 C.3       1 ASP        -0.0024
     46 SD         24.2260  -43.7260  -27.4970 S.3       1 ASP        -0.1639
     47 CE         24.4990  -42.0740  -28.0650 C.3       1 ASP        -0.0181
     48 N          22.7510  -43.3400  -22.1330 N.am      1 ASP        -0.2669
     49 CA         21.7550  -42.6040  -21.3130 C.3       1 ASP         0.1219
     50 CB         20.8000  -43.5260  -20.5360 C.3       1 ASP         0.1129
     51 OG         19.7280  -43.9710  -21.3850 O.3       1 ASP        -0.2720
     52 C          22.2920  -41.5290  -20.3760 C.2       1 ASP         0.0627
     53 O          21.5040  -40.8280  -19.7520 O.co2     1 ASP        -0.5665
     54 P          18.8610  -42.7920  -22.1250 P.3       1 ASP         0.2009
     55 O1P        19.7040  -42.1130  -23.3500 O.co2     1 ASP        -0.5537
     56 O2P        18.4580  -41.6590  -21.0150 O.co2     1 ASP        -0.5537
     57 O3P        17.5650  -43.5150  -22.8040 O.co2     1 ASP        -0.5537
     58 OXT        23.5030  -41.3830  -20.2610 O.co2     1 ASP        -0.5665
     59 H1         36.7287  -54.6430  -19.1797 H         1 ASP         0.2016
     60 H2         36.1855  -53.1085  -19.4236 H         1 ASP         0.2016
     61 H3         37.3175  -53.7508  -20.4314 H         1 ASP         0.2016
     62 H4         35.8289  -55.3592  -21.2538 H         1 ASP         0.1117
     63 H5         34.5133  -55.8928  -19.4340 H         1 ASP         0.0512
     64 H6         33.3727  -55.0030  -20.4990 H         1 ASP         0.0512
     65 H7         33.5460  -54.6903  -22.6382 H         1 ASP         0.1882
     66 H8         32.8294  -53.2672  -24.3253 H         1 ASP         0.0763
     67 H9         34.5098  -52.6326  -24.3391 H         1 ASP         0.0763
     68 H10        31.2814  -52.0927  -23.5705 H         1 ASP         0.1885
     69 H11        31.7613  -49.2130  -23.0943 H         1 ASP         0.0821
     70 H12        29.8816  -48.7812  -24.5046 H         1 ASP         0.0453
     71 H13        29.4496  -50.5237  -24.5667 H         1 ASP         0.0453
     72 H14        31.2785  -52.0585  -25.7154 H         1 ASP         0.0530
     73 H15        30.8711  -47.8724  -26.2652 H         1 ASP         0.0530
     74 H16        32.4972  -52.2056  -27.8566 H         1 ASP         0.0525
     75 H17        32.0339  -48.0013  -28.4004 H         1 ASP         0.0525
     76 H18        33.8054  -49.6171  -29.4031 H         1 ASP         0.2458
     77 H19        29.6518  -48.1770  -22.4931 H         1 ASP         0.1883
     78 H20        27.9659  -49.7151  -20.5848 H         1 ASP         0.0800
     79 H21        29.3571  -48.1568  -19.2922 H         1 ASP         0.0320
     80 H22        27.6888  -47.4965  -19.3767 H         1 ASP         0.0320
     81 H23        28.3135  -46.2083  -21.3443 H         1 ASP         0.0378
     82 H24        29.9872  -46.8485  -21.2201 H         1 ASP         0.0378
     83 H25        29.2500  -42.8725  -20.5655 H         1 ASP         0.0340
     84 H26        27.9614  -43.9988  -21.1109 H         1 ASP         0.0340
     85 H27        29.5824  -44.0467  -21.8835 H         1 ASP         0.0340
     86 H28        24.8954  -48.5678  -23.3397 H         1 ASP         0.0802
     87 H29        23.5656  -50.1062  -22.1479 H         1 ASP         0.0313
     88 H30        22.6026  -48.6311  -21.7963 H         1 ASP         0.0313
     89 H31        23.6340  -50.1742  -19.8730 H         1 ASP         0.0287
     90 H32        23.4728  -48.3924  -19.7117 H         1 ASP         0.0287
     91 H33        25.7075  -48.4271  -19.3171 H         1 ASP         0.0524
     92 H34        25.9001  -50.0672  -20.0240 H         1 ASP         0.0524
     93 H35        23.8430  -46.9600  -24.2653 H         1 ASP         0.1883
     94 H36        24.5287  -44.3420  -23.4602 H         1 ASP         0.0800
     95 H37        22.2837  -44.7348  -25.3710 H         1 ASP         0.0320
     96 H38        23.8208  -45.5815  -25.7545 H         1 ASP         0.0320
     97 H39        24.8688  -43.2371  -25.2485 H         1 ASP         0.0378
     98 H40        23.2067  -42.6632  -25.6156 H         1 ASP         0.0378
     99 H41        24.6997  -42.0866  -29.1465 H         1 ASP         0.0340
    100 H42        25.3622  -41.6426  -27.5369 H         1 ASP         0.0340
    101 H43        23.6050  -41.4651  -27.8651 H         1 ASP         0.0340
    102 H44        23.6973  -43.0175  -22.1097 H         1 ASP         0.1876
    103 H45        21.1332  -42.0688  -22.0458 H         1 ASP         0.0753
    104 H46        20.3801  -42.9750  -19.6815 H         1 ASP         0.0654
    105 H47        21.3586  -44.4001  -20.1700 H         1 ASP         0.0654
@<TRIPOS>BOND
     1    1    2 1  
     2    2    3 1  
     3    2    5 1  
     4    3    4 2  
     5    3    9 am 
     6    5    6 1  
     7    6    7 ar 
     8    6    8 ar 
     9    9   10 1  
    10   10   11 1  
    11   11   12 2  
    12   11   13 am 
    13   13   14 1  
    14   14   15 1  
    15   14   17 1  
    16   15   16 2  
    17   15   25 am 
    18   17   18 1  
    19   18   19 ar 
    20   18   20 ar 
    21   19   21 ar 
    22   20   22 ar 
    23   21   23 ar 
    24   22   23 ar 
    25   23   24 1  
    26   25   26 1  
    27   26   27 1  
    28   26   29 1  
    29   27   28 2  
    30   27   33 am 
    31   29   30 1  
    32   30   31 1  
    33   31   32 1  
    34   33   34 1  
    35   33   39 1  
    36   34   35 1  
    37   34   37 1  
    38   35   36 2  
    39   35   40 am 
    40   37   38 1  
    41   38   39 1  
    42   40   41 1  
    43   41   42 1  
    44   41   44 1  
    45   42   43 2  
    46   42   48 am 
    47   44   45 1  
    48   45   46 1  
    49   46   47 1  
    50   48   49 1  
    51   49   50 1  
    52   49   52 1  
    53   50   51 1  
    54   51   54 1  
    55   52   53 ar 
    56   52   58 ar 
    57   54   55 ar 
    58   54   56 ar 
    59   54   57 ar 
    60    1   59 1  
    61    1   60 1  
    62    1   61 1  
    63    2   62 1  
    64    5   63 1  
    65    5   64 1  
    66    9   65 1  
    67   10   66 1  
    68   10   67 1  
    69   13   68 1  
    70   14   69 1  
    71   17   70 1  
    72   17   71 1  
    73   19   72 1  
    74   20   73 1  
    75   21   74 1  
    76   22   75 1  
    77   24   76 1  
    78   25   77 1  
    79   26   78 1  
    80   29   79 1  
    81   29   80 1  
    82   30   81 1  
    83   30   82 1  
    84   32   83 1  
    85   32   84 1  
    86   32   85 1  
    87   34   86 1  
    88   37   87 1  
    89   37   88 1  
    90   38   89 1  
    91   38   90 1  
    92   39   91 1  
    93   39   92 1  
    94   40   93 1  
    95   41   94 1  
    96   44   95 1  
    97   44   96 1  
    98   45   97 1  
    99   45   98 1  
   100   47   99 1  
   101   47  100 1  
   102   47  101 1  
   103   48  102 1  
   104   49  103 1  
   105   50  104 1  
   106   50  105 1  
@<TRIPOS>SUBSTRUCTURE
     1 ASP         1

