5i2z_ligand
  -I-interpret- 

 93 96  0  0  0  0  0  0  0  0999 V2000
  -11.1140  -15.6300   -3.1670 C   0  0  0  0  0
   -8.7270  -15.4710   -2.7950 C   0  0  0  0  0
   -8.9150  -14.1990   -2.2820 C   0  0  0  0  0
  -10.1950  -13.6530   -2.2040 C   0  0  0  0  0
  -12.6150  -13.8100   -2.5750 C   0  0  0  0  0
  -13.6930  -14.6380   -2.6970 C   0  0  0  0  0
  -14.9230  -14.0400   -2.5740 C   0  0  0  0  0
  -13.9840  -11.8990   -2.1710 C   0  0  0  0  0
  -12.7480  -12.4550   -2.2950 C   0  0  0  0  0
  -17.1390  -13.0430   -1.3960 O   0  0  0  0  0
  -17.2090  -11.0460   -4.5110 C   0  0  0  0  0
  -16.3040  -11.4510   -5.6000 C   0  0  0  0  0
  -18.4720  -10.4460   -5.1530 C   0  0  0  0  0
  -19.6220  -10.2920   -4.1980 C   0  0  0  0  0
  -18.4920  -13.0060   -3.7270 C   0  0  0  0  0
  -19.5890  -13.5230   -2.7750 C   0  0  0  0  0
  -23.0420  -18.1950   -0.8150 O   0  0  0  0  0
  -22.7980  -17.1620   -1.3690 C   0  0  0  0  0
  -22.6140  -17.2580   -2.7790 C   0  0  0  0  0
  -22.7200  -15.9250   -0.9130 N   0  0  0  0  0
  -22.0280  -15.6560    0.3030 C   0  0  0  0  0
  -22.8720  -15.9140    1.5500 C   0  0  0  0  0
  -22.9970  -17.3440    1.5830 O   0  0  0  0  0
  -23.7410  -18.0270    2.5920 C   0  0  0  0  0
  -24.5340  -17.3700    3.1860 O   0  0  0  0  0
  -23.4890  -19.4790    2.8370 C   0  0  0  0  0
  -22.2910  -15.2890    2.8430 C   0  0  0  0  0
  -23.2510  -14.3860    3.3920 O   0  0  0  0  0
  -23.5760  -14.7000    4.7690 C   0  0  0  0  0
  -23.9190  -15.7960    5.1000 O   0  0  0  0  0
  -23.4500  -13.6240    5.7580 C   0  0  0  0  0
  -20.8600  -14.7180    2.7050 C   0  0  0  0  0
  -19.8950  -15.7890    3.2560 C   0  0  0  0  0
  -18.4610  -15.6510    3.2100 O   0  0  0  0  0
  -17.6240  -15.1330    4.3000 C   0  0  0  0  0
  -16.5840  -14.5840    4.0460 O   0  0  0  0  0
  -18.1040  -15.2830    5.7080 C   0  0  0  0  0
  -20.5250  -14.3110    1.3460 O   0  0  0  0  0
  -21.5090  -14.2560    0.3160 C   0  0  0  0  0
  -20.8790  -14.0460   -1.0060 N   0  0  0  0  0
  -21.5070  -14.5650   -2.1340 N   0  0  0  0  0
  -20.6610  -14.2210   -3.2050 N   0  0  0  0  0
  -19.7710  -13.4240   -1.3920 C   0  0  0  0  0
  -17.4240  -12.0130   -3.4260 N   0  0  0  0  0
  -18.2060   -9.0920   -5.7930 C   0  0  0  0  0
  -16.7700  -12.0950   -6.5160 O   0  0  0  0  0
  -15.1540  -11.0730   -5.5120 O   0  0  0  0  0
  -16.5440  -12.0750   -2.1930 S   0  0  0  0  0
  -16.5340  -10.9800   -1.3950 O   0  0  0  0  0
  -15.0820  -12.6820   -2.3370 C   0  0  0  0  0
  -11.2800  -14.3800   -2.6730 C   0  0  0  0  0
   -9.8400  -16.1840   -3.2230 C   0  0  0  0  0
  -11.9747  -16.1988   -3.5189 H   0  0  0  0  0
   -7.7286  -15.9033   -2.8616 H   0  0  0  0  0
   -8.0574  -13.6214   -1.9372 H   0  0  0  0  0
  -10.3429  -12.6610   -1.7772 H   0  0  0  0  0
  -13.5844  -15.7069   -2.8806 H   0  0  0  0  0
  -15.8147  -14.6600   -2.6667 H   0  0  0  0  0
  -14.0918  -10.8389   -1.9414 H   0  0  0  0  0
  -11.8593  -11.8356   -2.1743 H   0  0  0  0  0
  -16.7103  -10.2780   -3.9197 H   0  0  0  0  0
  -18.7501  -11.1733   -5.9157 H   0  0  0  0  0
  -19.8939  -11.2689   -3.7982 H   0  0  0  0  0
  -19.3285   -9.6326   -3.3812 H   0  0  0  0  0
  -20.4748   -9.8632   -4.7243 H   0  0  0  0  0
  -19.0863  -12.4634   -4.4622 H   0  0  0  0  0
  -17.9039  -13.9100   -3.8852 H   0  0  0  0  0
  -21.7811  -17.9285   -2.9906 H   0  0  0  0  0
  -23.5225  -17.6493   -3.2369 H   0  0  0  0  0
  -22.3982  -16.2694   -3.1841 H   0  0  0  0  0
  -23.1553  -15.1620   -1.4315 H   0  0  0  0  0
  -21.1937  -16.3566    0.3375 H   0  0  0  0  0
  -23.8444  -15.4239    1.5022 H   0  0  0  0  0
  -23.1614  -19.6209    3.8669 H   0  0  0  0  0
  -24.4079  -20.0398    2.6661 H   0  0  0  0  0
  -22.7145  -19.8320    2.1561 H   0  0  0  0  0
  -22.1273  -16.0894    3.5646 H   0  0  0  0  0
  -24.4149  -13.4578    6.2371 H   0  0  0  0  0
  -22.7137  -13.9078    6.5099 H   0  0  0  0  0
  -23.1282  -12.7097    5.2593 H   0  0  0  0  0
  -20.7775  -13.7943    3.2778 H   0  0  0  0  0
  -20.0827  -16.6477    2.6114 H   0  0  0  0  0
  -20.1102  -15.7911    4.3245 H   0  0  0  0  0
  -17.3738  -15.8549    6.2805 H   0  0  0  0  0
  -18.2268  -14.2968    6.1557 H   0  0  0  0  0
  -19.0602  -15.8062    5.7107 H   0  0  0  0  0
  -22.2384  -13.4642    0.4866 H   0  0  0  0  0
  -19.0910  -12.9034   -0.7177 H   0  0  0  0  0
  -17.8493   -8.3963   -5.0334 H   0  0  0  0  0
  -17.4503   -9.2014   -6.5709 H   0  0  0  0  0
  -19.1284   -8.7114   -6.2317 H   0  0  0  0  0
  -15.0407  -10.5843   -4.6935 H   0  0  0  0  0
   -9.7122  -17.1952   -3.6094 H   0  0  0  0  0
 51  1  4  0  0  0
  1 52  4  0  0  0
  3  2  4  0  0  0
 52  2  4  0  0  0
  4  3  4  0  0  0
 51  4  4  0  0  0
  6  5  4  0  0  0
  9  5  4  0  0  0
  5 51  1  0  0  0
  7  6  4  0  0  0
 50  7  4  0  0  0
  8  9  4  0  0  0
 50  8  4  0  0  0
 48 10  2  0  0  0
 11 12  1  0  0  0
 11 13  1  0  0  0
 44 11  1  0  0  0
 12 46  2  0  0  0
 12 47  1  0  0  0
 13 14  1  0  0  0
 13 45  1  0  0  0
 15 16  1  0  0  0
 44 15  1  0  0  0
 16 42  4  0  0  0
 16 43  4  0  0  0
 18 17  2  0  0  0
 18 19  1  0  0  0
 20 18  1  0  0  0
 21 20  1  0  0  0
 21 22  1  0  0  0
 39 21  1  0  0  0
 22 23  1  0  0  0
 22 27  1  0  0  0
 23 24  1  0  0  0
 24 25  2  0  0  0
 24 26  1  0  0  0
 27 28  1  0  0  0
 32 27  1  0  0  0
 28 29  1  0  0  0
 29 30  2  0  0  0
 29 31  1  0  0  0
 32 33  1  0  0  0
 38 32  1  0  0  0
 33 34  1  0  0  0
 34 35  1  0  0  0
 35 36  2  0  0  0
 35 37  1  0  0  0
 39 38  1  0  0  0
 40 39  1  0  0  0
 40 41  4  0  0  0
 43 40  4  0  0  0
 42 41  4  0  0  0
 48 44  1  0  0  0
 48 49  2  0  0  0
 48 50  1  0  0  0
  1 53  1  0  0  0
  2 54  1  0  0  0
  3 55  1  0  0  0
  4 56  1  0  0  0
  6 57  1  0  0  0
  7 58  1  0  0  0
  8 59  1  0  0  0
  9 60  1  0  0  0
 11 61  1  0  0  0
 13 62  1  0  0  0
 14 63  1  0  0  0
 14 64  1  0  0  0
 14 65  1  0  0  0
 15 66  1  0  0  0
 15 67  1  0  0  0
 19 68  1  0  0  0
 19 69  1  0  0  0
 19 70  1  0  0  0
 20 71  1  0  0  0
 21 72  1  0  0  0
 22 73  1  0  0  0
 26 74  1  0  0  0
 26 75  1  0  0  0
 26 76  1  0  0  0
 27 77  1  0  0  0
 31 78  1  0  0  0
 31 79  1  0  0  0
 31 80  1  0  0  0
 32 81  1  0  0  0
 33 82  1  0  0  0
 33 83  1  0  0  0
 37 84  1  0  0  0
 37 85  1  0  0  0
 37 86  1  0  0  0
 39 87  1  0  0  0
 43 88  1  0  0  0
 45 89  1  0  0  0
 45 90  1  0  0  0
 45 91  1  0  0  0
 47 92  1  0  0  0
 52 93  1  0  0  0
M  END
$$$$
