3t3v_ligand
  -I-interpret- 

 44 47  0  0  0  0  0  0  0  0999 V2000
   16.6860   11.6230   62.7000 N   0  0  0  0  0
   17.8850   12.1170   62.3690 C   0  0  0  0  0
   18.0170   13.4350   62.2370 N   0  0  0  0  0
   16.9710   14.2700   62.4460 C   0  0  0  0  0
   15.7240   13.7780   62.8070 C   0  0  0  0  0
   15.5970   12.3920   62.9250 C   0  0  0  0  0
    6.8550   14.7480   64.6840 C   0  0  0  0  0
   17.8850   17.8650   62.7010 C   0  0  0  0  0
   18.0400   16.6460   60.5130 C   0  0  0  0  0
   14.4590   11.7960   63.2550 N   0  0  0  0  0
    9.9480   13.5400   66.1590 C   0  0  0  0  0
   12.6770   15.6350   62.5240 C   0  0  0  0  0
   11.2900   13.5470   65.8390 C   0  0  0  0  0
   11.3180   15.6600   62.8480 C   0  0  0  0  0
    9.4920   14.9730   64.2820 C   0  0  0  0  0
   13.1130   14.2080   64.4130 C   0  0  0  0  0
   15.6940   15.9700   62.6590 N   0  0  0  0  0
    7.7340   14.2360   65.7280 O   0  0  0  0  0
    9.0440   14.2530   65.3790 C   0  0  0  0  0
   13.5810   14.9030   63.2960 C   0  0  0  0  0
   14.9310   14.9120   62.9470 C   0  0  0  0  0
   10.8480   14.9590   63.9550 C   0  0  0  0  0
   11.7540   14.2350   64.7370 C   0  0  0  0  0
   17.9820   16.4920   62.0380 C   0  0  0  0  0
   16.8490   15.5990   62.3930 N   0  0  0  0  0
   18.7356   11.4540   62.2108 H   0  0  0  0  0
    7.1231   15.7803   64.4590 H   0  0  0  0  0
    6.9653   14.1388   63.7869 H   0  0  0  0  0
    5.8216   14.7064   65.0282 H   0  0  0  0  0
   18.7592   18.4587   62.4338 H   0  0  0  0  0
   16.9823   18.3701   62.3573 H   0  0  0  0  0
   17.8445   17.7424   63.7833 H   0  0  0  0  0
   17.1376   17.1489   60.1653 H   0  0  0  0  0
   18.9145   17.2375   60.2418 H   0  0  0  0  0
   18.1090   15.6607   60.0520 H   0  0  0  0  0
   14.4197   10.7798   63.3339 H   0  0  0  0  0
   13.6232   12.3538   63.4299 H   0  0  0  0  0
    9.5964   12.9758   67.0228 H   0  0  0  0  0
   13.0352   16.1932   61.6590 H   0  0  0  0  0
   11.9943   13.0007   66.4664 H   0  0  0  0  0
   10.6233   16.2306   62.2316 H   0  0  0  0  0
    8.7886   15.5467   63.6785 H   0  0  0  0  0
   13.8090   13.6434   65.0334 H   0  0  0  0  0
   18.8964   16.0303   62.4107 H   0  0  0  0  0
  2  1  4  0  0  0
  6  1  4  0  0  0
  3  2  4  0  0  0
  4  3  4  0  0  0
  4  5  4  0  0  0
 25  4  4  0  0  0
  5  6  4  0  0  0
 21  5  4  0  0  0
  6 10  1  0  0  0
 18  7  1  0  0  0
 24  8  1  0  0  0
 24  9  1  0  0  0
 13 11  4  0  0  0
 11 19  4  0  0  0
 12 14  4  0  0  0
 20 12  4  0  0  0
 23 13  4  0  0  0
 14 22  4  0  0  0
 15 19  4  0  0  0
 22 15  4  0  0  0
 20 16  4  0  0  0
 16 23  4  0  0  0
 17 21  4  0  0  0
 25 17  4  0  0  0
 19 18  1  0  0  0
 21 20  1  0  0  0
 23 22  4  0  0  0
 24 25  1  0  0  0
  2 26  1  0  0  0
  7 27  1  0  0  0
  7 28  1  0  0  0
  7 29  1  0  0  0
  8 30  1  0  0  0
  8 31  1  0  0  0
  8 32  1  0  0  0
  9 33  1  0  0  0
  9 34  1  0  0  0
  9 35  1  0  0  0
 10 36  1  0  0  0
 10 37  1  0  0  0
 11 38  1  0  0  0
 12 39  1  0  0  0
 13 40  1  0  0  0
 14 41  1  0  0  0
 15 42  1  0  0  0
 16 43  1  0  0  0
 24 44  1  0  0  0
M  END
$$$$
