4mjr_ligand
  -I-interpret- 

 30 32  0  0  0  0  0  0  0  0999 V2000
  -19.4960    0.5810  -24.4290 Cl  0  0  0  0  0
  -21.1980    1.0570  -24.1850 C   0  0  0  0  0
  -21.5820    2.1790  -24.9040 C   0  0  0  0  0
  -22.8600    2.7040  -24.8170 C   0  0  0  0  0
  -23.7800    2.0740  -24.0030 C   0  0  0  0  0
  -25.0900    2.3170  -23.7010 N   0  0  0  0  0
  -22.0700    0.3740  -23.3450 C   0  0  0  0  0
  -23.3550    0.8780  -23.2460 C   0  0  0  0  0
  -24.5250    0.4380  -22.4930 C   0  0  0  0  0
  -24.7430   -0.6170  -21.6150 C   0  0  0  0  0
  -26.0310   -0.7360  -21.0540 C   0  0  0  0  0
  -25.5940    1.4010  -22.8290 C   0  0  0  0  0
  -26.8380    1.2370  -22.2460 C   0  0  0  0  0
  -27.0620    0.1840  -21.3590 C   0  0  0  0  0
  -28.4500    0.0640  -20.8310 C   0  0  0  0  0
  -28.6220    0.4360  -19.3820 C   0  0  0  0  0
  -28.9040   -1.3520  -21.0260 C   0  0  0  0  0
  -29.1980   -1.7960  -22.2460 O   0  0  0  0  0
  -29.0090   -2.1080  -20.0730 O   0  0  0  0  0
  -20.8555    2.6621  -25.5574 H   0  0  0  0  0
  -23.1342    3.5964  -25.3796 H   0  0  0  0  0
  -21.7578   -0.5125  -22.7930 H   0  0  0  0  0
  -23.9503   -1.3239  -21.3700 H   0  0  0  0  0
  -26.2378   -1.5574  -20.3680 H   0  0  0  0  0
  -27.6444    1.9319  -22.4802 H   0  0  0  0  0
  -29.0503    0.7831  -21.3883 H   0  0  0  0  0
  -27.9988   -0.2118  -18.7655 H   0  0  0  0  0
  -28.3239    1.4744  -19.2369 H   0  0  0  0  0
  -29.6673    0.3137  -19.0984 H   0  0  0  0  0
  -29.0667   -1.0896  -22.8827 H   0  0  0  0  0
  1  2  1  0  0  0
  2  3  4  0  0  0
  2  7  4  0  0  0
  3  4  4  0  0  0
  4  5  4  0  0  0
  5  6  4  0  0  0
  5  8  4  0  0  0
  6 12  4  0  0  0
  7  8  4  0  0  0
  8  9  4  0  0  0
  9 10  4  0  0  0
  9 12  4  0  0  0
 10 11  4  0  0  0
 11 14  4  0  0  0
 12 13  4  0  0  0
 13 14  4  0  0  0
 14 15  1  0  0  0
 15 16  1  0  0  0
 15 17  1  0  0  0
 17 18  1  0  0  0
 17 19  2  0  0  0
  3 20  1  0  0  0
  4 21  1  0  0  0
  7 22  1  0  0  0
 10 23  1  0  0  0
 11 24  1  0  0  0
 13 25  1  0  0  0
 15 26  1  0  0  0
 16 27  1  0  0  0
 16 28  1  0  0  0
 16 29  1  0  0  0
 18 30  1  0  0  0
M  END
$$$$
