6t1j_ligand
  -I-interpret- 

 58 61  0  0  0  0  0  0  0  0999 V2000
   -2.5120   17.0900   19.6910 O   0  0  0  0  0
   -3.0740   16.2680   18.9770 C   0  0  0  0  0
   -4.1970   15.4910   19.5640 C   0  0  0  0  0
   -4.4230   15.5890   21.2580 S   0  0  0  0  0
   -5.7350   14.4910   21.2110 C   0  0  0  0  0
   -6.0170   14.0540   19.9680 C   0  0  0  0  0
   -5.1650   14.6030   18.9900 C   0  0  0  0  0
   -2.6270   15.9720   17.7370 N   0  0  0  0  0
   -3.2830   15.0540   16.7970 C   0  0  0  0  0
   -2.8290   15.3350   15.3770 C   0  0  0  0  0
   -1.3420   16.4660   17.2350 C   0  0  0  0  0
   -0.6410   15.3840   16.4570 C   0  0  0  0  0
   -1.3950   15.0660   15.2390 N   0  0  0  0  0
   -0.8300   15.0080   14.0020 C   0  0  0  0  0
   -1.5070   15.0380   12.9810 O   0  0  0  0  0
    0.5040   14.9030   14.0000 N   0  0  0  0  0
    1.1630   14.2230   12.9000 C   0  0  0  0  0
    2.5830   14.6800   12.6780 C   0  0  0  0  0
    3.4750   13.8680   11.9990 C   0  0  0  0  0
    4.7200   14.3330   11.6280 C   0  0  0  0  0
    5.1130   15.6280   11.9190 C   0  0  0  0  0
    4.2470   16.4240   12.6570 C   0  0  0  0  0
    3.0000   15.9570   13.0310 C   0  0  0  0  0
    6.3640   16.1990   11.2930 C   0  0  0  0  0
    6.3860   16.0320    9.8290 N   0  3  0  0  0
    7.6950   16.3220    9.2350 C   0  0  0  0  0
    7.4000   16.4850    7.7840 C   0  0  0  0  0
    6.1260   17.2010    7.7660 C   0  0  0  0  0
    5.4650   16.9440    9.1410 C   0  0  0  0  0
   -6.2867   14.1770   22.0971 H   0  0  0  0  0
   -6.8189   13.3507   19.7433 H   0  0  0  0  0
   -5.2334   14.3797   17.9253 H   0  0  0  0  0
   -4.3621   15.1951   16.8586 H   0  0  0  0  0
   -3.0170   14.0297   17.0580 H   0  0  0  0  0
   -3.0187   16.3827   15.1434 H   0  0  0  0  0
   -3.3797   14.6893   14.6929 H   0  0  0  0  0
   -0.7181   16.7622   18.0783 H   0  0  0  0  0
   -1.5175   17.3205   16.5815 H   0  0  0  0  0
   -0.5688   14.4895   17.0756 H   0  0  0  0  0
    0.3543   15.7315   16.1800 H   0  0  0  0  0
    1.0526   15.2971   14.7643 H   0  0  0  0  0
    0.6009   14.4445   11.9928 H   0  0  0  0  0
    1.1937   13.1606   13.1416 H   0  0  0  0  0
    3.1894   12.8451   11.7535 H   0  0  0  0  0
    5.4043   13.6707   11.0978 H   0  0  0  0  0
    4.5538   17.4295   12.9452 H   0  0  0  0  0
    2.3362   16.5991   13.6100 H   0  0  0  0  0
    7.2209   15.6669   11.7061 H   0  0  0  0  0
    6.3933   17.2665   11.5112 H   0  0  0  0  0
    6.1238   15.0543    9.7037 H   0  0  0  0  0
    8.4205   15.5308    9.4242 H   0  0  0  0  0
    8.1584   17.2095    9.6660 H   0  0  0  0  0
    7.3469   15.5300    7.2613 H   0  0  0  0  0
    8.1874   17.0253    7.2584 H   0  0  0  0  0
    5.4901   16.8500    6.9533 H   0  0  0  0  0
    6.2774   18.2671    7.5966 H   0  0  0  0  0
    5.3129   17.8677    9.6993 H   0  0  0  0  0
    4.4673   16.5167    9.0403 H   0  0  0  0  0
  1  2  2  0  0  0
  2  3  1  0  0  0
  2  8  1  0  0  0
  3  4  4  0  0  0
  3  7  4  0  0  0
  4  5  4  0  0  0
  5  6  4  0  0  0
  6  7  4  0  0  0
  8  9  1  0  0  0
  8 11  1  0  0  0
  9 10  1  0  0  0
 10 13  1  0  0  0
 11 12  1  0  0  0
 12 13  1  0  0  0
 13 14  1  0  0  0
 14 15  2  0  0  0
 14 16  1  0  0  0
 16 17  1  0  0  0
 17 18  1  0  0  0
 18 19  4  0  0  0
 18 23  4  0  0  0
 19 20  4  0  0  0
 20 21  4  0  0  0
 21 22  4  0  0  0
 21 24  1  0  0  0
 22 23  4  0  0  0
 24 25  1  0  0  0
 25 26  1  0  0  0
 25 29  1  0  0  0
 26 27  1  0  0  0
 27 28  1  0  0  0
 28 29  1  0  0  0
  5 30  1  0  0  0
  6 31  1  0  0  0
  7 32  1  0  0  0
  9 33  1  0  0  0
  9 34  1  0  0  0
 10 35  1  0  0  0
 10 36  1  0  0  0
 11 37  1  0  0  0
 11 38  1  0  0  0
 12 39  1  0  0  0
 12 40  1  0  0  0
 16 41  1  0  0  0
 17 42  1  0  0  0
 17 43  1  0  0  0
 19 44  1  0  0  0
 20 45  1  0  0  0
 22 46  1  0  0  0
 23 47  1  0  0  0
 24 48  1  0  0  0
 24 49  1  0  0  0
 25 50  1  0  0  0
 26 51  1  0  0  0
 26 52  1  0  0  0
 27 53  1  0  0  0
 27 54  1  0  0  0
 28 55  1  0  0  0
 28 56  1  0  0  0
 29 57  1  0  0  0
 29 58  1  0  0  0
M  END
$$$$
