6h34_ligand
  -I-interpret- 

 47 49  0  0  0  0  0  0  0  0999 V2000
   -5.4890    2.3530   15.7160 C   0  0  0  0  0
   -3.4340    5.8910   12.6870 N   0  0  0  0  0
   -6.3680    3.4170   15.6130 C   0  0  0  0  0
   -5.2440    1.1900   18.0000 O   0  0  0  0  0
   -0.7750    6.7190   12.0260 N   0  3  0  0  0
   -6.0750    4.4600   14.7600 C   0  0  0  0  0
   -5.6550    6.0450   12.4450 O   0  0  0  0  0
   -5.9220    1.0000   16.7510 S   0  0  0  0  0
   -7.3530    0.9300   16.7570 O   0  0  0  0  0
   -4.3140    2.3320   14.9790 C   0  0  0  0  0
   -4.0300    3.3860   14.1250 C   0  0  0  0  0
   -4.9120    4.4570   14.0030 C   0  0  0  0  0
   -4.6900    5.5310   12.9880 C   0  0  0  0  0
   -2.3470    5.7600   13.6560 C   0  0  0  0  0
   -1.0390    5.5830   12.9170 C   0  0  0  0  0
   -3.1970    7.0710   11.8560 C   0  0  0  0  0
   -1.9010    6.8980   11.1030 C   0  0  0  0  0
    0.4720    6.5140   11.2740 C   0  0  0  0  0
    1.7130    6.6520   12.1220 C   0  0  0  0  0
    2.5170    5.5530   12.3840 C   0  0  0  0  0
    3.6960    5.6830   13.0970 C   0  0  0  0  0
    4.0480    6.9280   13.5410 C   0  0  0  0  0
    5.2160    7.0690   14.2240 F   0  0  0  0  0
    3.2840    8.0400   13.3150 C   0  0  0  0  0
    2.1100    7.8920   12.5990 C   0  0  0  0  0
   -5.3730   -0.3570   16.1020 N   0  0  0  0  0
   -7.2852    3.4304   16.2018 H   0  0  0  0  0
   -0.6692    7.5602   12.5931 H   0  0  0  0  0
   -6.7666    5.2986   14.6792 H   0  0  0  0  0
   -3.6214    1.4954   15.0706 H   0  0  0  0  0
   -3.1081    3.3767   13.5436 H   0  0  0  0  0
   -2.5273    4.8936   14.2924 H   0  0  0  0  0
   -2.2989    6.6562   14.2745 H   0  0  0  0  0
   -0.2325    5.5190   13.6475 H   0  0  0  0  0
   -1.0990    4.6758   12.3157 H   0  0  0  0  0
   -3.1363    7.9567   12.4885 H   0  0  0  0  0
   -4.0174    7.1897   11.1482 H   0  0  0  0  0
   -1.9793    6.0127   10.4719 H   0  0  0  0  0
   -1.7231    7.7913   10.5043 H   0  0  0  0  0
    0.5174    7.2785   10.4984 H   0  0  0  0  0
    0.4547    5.4979   10.8798 H   0  0  0  0  0
    2.2153    4.5700   12.0222 H   0  0  0  0  0
    4.3266    4.8172   13.2992 H   0  0  0  0  0
    3.5922    9.0163   13.6891 H   0  0  0  0  0
    1.4863    8.7649   12.4064 H   0  0  0  0  0
   -4.6634   -0.9046   16.5889 H   0  0  0  0  0
   -5.7329   -0.6738   15.2017 H   0  0  0  0  0
  3  1  4  0  0  0
  1  8  1  0  0  0
 10  1  4  0  0  0
  2 13  1  0  0  0
 14  2  1  0  0  0
  2 16  1  0  0  0
  6  3  4  0  0  0
  8  4  2  0  0  0
 15  5  1  0  0  0
  5 17  1  0  0  0
  5 18  1  0  0  0
 12  6  4  0  0  0
 13  7  2  0  0  0
  8  9  2  0  0  0
  8 26  1  0  0  0
 11 10  4  0  0  0
 12 11  4  0  0  0
 13 12  1  0  0  0
 14 15  1  0  0  0
 16 17  1  0  0  0
 18 19  1  0  0  0
 19 20  4  0  0  0
 19 25  4  0  0  0
 20 21  4  0  0  0
 21 22  4  0  0  0
 22 23  1  0  0  0
 22 24  4  0  0  0
 24 25  4  0  0  0
  3 27  1  0  0  0
  5 28  1  0  0  0
  6 29  1  0  0  0
 10 30  1  0  0  0
 11 31  1  0  0  0
 14 32  1  0  0  0
 14 33  1  0  0  0
 15 34  1  0  0  0
 15 35  1  0  0  0
 16 36  1  0  0  0
 16 37  1  0  0  0
 17 38  1  0  0  0
 17 39  1  0  0  0
 18 40  1  0  0  0
 18 41  1  0  0  0
 20 42  1  0  0  0
 21 43  1  0  0  0
 24 44  1  0  0  0
 25 45  1  0  0  0
 26 46  1  0  0  0
 26 47  1  0  0  0
M  END
$$$$
