3zpr_ligand
  -I-interpret- 

 35 37  0  0  0  0  0  0  0  0999 V2000
  -20.8840  -11.6040   25.0980 C   0  0  0  0  0
  -19.7670  -11.5410   25.9180 C   0  0  0  0  0
  -18.6570  -10.7940   25.5110 C   0  0  0  0  0
  -23.9000  -13.6810   24.7880 C   0  0  0  0  0
  -25.3020  -13.2080   24.9700 C   0  0  0  0  0
  -25.6890  -12.3590   23.8230 N   0  3  0  0  0
  -24.9860  -11.0540   23.8680 C   0  0  0  0  0
  -23.4840  -11.3530   23.7870 C   0  0  0  0  0
  -21.9920  -12.3470   25.5080 C   0  0  0  0  0
  -18.7000  -12.2120   28.0030 C   0  0  0  0  0
  -20.9460  -12.9740   27.4960 C   0  0  0  0  0
  -23.0810  -12.4410   24.7280 N   0  0  0  0  0
  -21.0030  -13.6820   28.6990 C   0  0  0  0  0
  -19.9120  -13.6600   29.5730 C   0  0  0  0  0
  -22.0010  -13.0090   26.6890 N   0  0  0  0  0
  -19.7990  -12.2340   27.1350 C   0  0  0  0  0
  -18.7700  -12.9210   29.2190 C   0  0  0  0  0
  -20.8963  -11.0785   24.1431 H   0  0  0  0  0
  -18.2784  -11.1918   24.5694 H   0  0  0  0  0
  -18.9511   -9.7532   25.3752 H   0  0  0  0  0
  -17.8794  -10.8568   26.2723 H   0  0  0  0  0
  -23.7901  -14.2821   23.8854 H   0  0  0  0  0
  -23.5850  -14.3345   25.6015 H   0  0  0  0  0
  -25.3733  -12.6290   25.8908 H   0  0  0  0  0
  -25.9705  -14.0670   25.0279 H   0  0  0  0  0
  -26.6943  -12.1912   23.8641 H   0  0  0  0  0
  -25.4342  -12.8387   22.9597 H   0  0  0  0  0
  -25.2243  -10.5183   24.7869 H   0  0  0  0  0
  -25.2985  -10.4180   23.0398 H   0  0  0  0  0
  -22.9403  -10.4480   24.0580 H   0  0  0  0  0
  -23.2542  -11.6767   22.7718 H   0  0  0  0  0
  -17.8014  -11.6533   27.7412 H   0  0  0  0  0
  -21.8967  -14.2507   28.9558 H   0  0  0  0  0
  -19.9465  -14.2077   30.5148 H   0  0  0  0  0
  -17.9195  -12.8957   29.9002 H   0  0  0  0  0
  1  2  4  0  0  0
  9  1  4  0  0  0
  2  3  1  0  0  0
  2 16  4  0  0  0
  4  5  1  0  0  0
 12  4  1  0  0  0
  5  6  1  0  0  0
  7  6  1  0  0  0
  8  7  1  0  0  0
 12  8  1  0  0  0
  9 12  1  0  0  0
 15  9  4  0  0  0
 16 10  4  0  0  0
 10 17  4  0  0  0
 11 13  4  0  0  0
 11 15  4  0  0  0
 11 16  4  0  0  0
 13 14  4  0  0  0
 14 17  4  0  0  0
  1 18  1  0  0  0
  3 19  1  0  0  0
  3 20  1  0  0  0
  3 21  1  0  0  0
  4 22  1  0  0  0
  4 23  1  0  0  0
  5 24  1  0  0  0
  5 25  1  0  0  0
  6 26  1  0  0  0
  6 27  1  0  0  0
  7 28  1  0  0  0
  7 29  1  0  0  0
  8 30  1  0  0  0
  8 31  1  0  0  0
 10 32  1  0  0  0
 13 33  1  0  0  0
 14 34  1  0  0  0
 17 35  1  0  0  0
M  END
$$$$
