4hxl_ligand
  -I-interpret- 

 57 60  0  0  0  0  0  0  0  0999 V2000
    0.2100   -6.4260   -1.8900 C   0  0  0  0  0
    1.6950   -6.4970   -2.0350 C   0  0  0  0  0
    2.2020   -7.8820   -2.3090 C   0  0  0  0  0
    1.2090   -9.0040   -2.2150 C   0  0  0  0  0
   -0.1910   -8.7260   -2.6770 C   0  0  0  0  0
   -0.5190   -7.2810   -2.8850 C   0  0  0  0  0
   -2.0050   -7.0490   -2.8440 C   0  0  0  0  0
   -2.6710   -7.8800   -1.8080 C   0  0  0  0  0
   -4.1090   -7.5180   -1.6280 C   0  0  0  0  0
   -4.6690   -6.6810   -2.3270 O   0  0  0  0  0
   -4.7950   -8.2060   -0.5900 N   0  0  0  0  0
   -6.1640   -8.0610   -0.2100 C   0  0  0  0  0
   -6.5760   -8.8980    0.8060 C   0  0  0  0  0
   -7.0510   -7.1530   -0.7750 C   0  0  0  0  0
   -8.3580   -7.1240   -0.3100 C   0  0  0  0  0
   -9.3230   -6.1630   -0.8920 C   0  0  0  0  0
   -9.0300   -5.1640   -1.8930 C   0  0  0  0  0
  -10.4590   -4.3070   -2.2190 S   0  0  0  0  0
  -11.4250   -5.1310   -1.1390 C   0  0  0  0  0
  -12.6200   -4.9620   -0.8960 O   0  0  0  0  0
  -10.6710   -6.0610   -0.5480 N   0  0  0  0  0
   -8.7720   -7.9580    0.7170 C   0  0  0  0  0
   -7.8750   -8.8550    1.2740 C   0  0  0  0  0
   -8.2370   -9.7190    2.3500 N   0  0  0  0  0
   -7.4900   -9.4930    3.8030 S   0  0  0  0  0
   -8.1430  -10.2260    4.8720 O   0  0  0  0  0
   -6.0990   -9.9560    3.6510 O   0  0  0  0  0
   -7.4290   -7.7960    4.2970 C   0  0  0  0  0
   -6.5950   -6.6600    3.4740 S   0  0  0  0  0
   -6.8950   -5.3640    4.4210 C   0  0  0  0  0
   -7.7190   -5.7470    5.5150 C   0  0  0  0  0
   -8.0450   -7.2060    5.4670 C   0  0  0  0  0
   -0.0906   -5.3918   -2.0582 H   0  0  0  0  0
   -0.0436   -6.7874   -0.8934 H   0  0  0  0  0
    2.1330   -6.1675   -1.0928 H   0  0  0  0  0
    1.9722   -5.8720   -2.8839 H   0  0  0  0  0
    2.9496   -8.0819   -1.5414 H   0  0  0  0  0
    2.5438   -7.8738   -3.3440 H   0  0  0  0  0
    1.1280   -9.2375   -1.1534 H   0  0  0  0  0
    1.5862   -9.7871   -2.8727 H   0  0  0  0  0
   -0.8565   -9.0880   -1.8933 H   0  0  0  0  0
   -0.3037   -9.2146   -3.6448 H   0  0  0  0  0
   -0.1799   -6.9910   -3.8795 H   0  0  0  0  0
   -2.4187   -7.3199   -3.8154 H   0  0  0  0  0
   -2.1792   -6.0004   -2.6030 H   0  0  0  0  0
   -2.1593   -7.7127   -0.8603 H   0  0  0  0  0
   -2.6220   -8.9211   -2.1270 H   0  0  0  0  0
   -4.2468   -8.8801   -0.0557 H   0  0  0  0  0
   -5.8684   -9.6015    1.2447 H   0  0  0  0  0
   -6.7270   -6.4777   -1.5669 H   0  0  0  0  0
   -8.0598   -4.9903   -2.3584 H   0  0  0  0  0
  -11.0756   -6.6891    0.1464 H   0  0  0  0  0
   -9.7971   -7.9084    1.0841 H   0  0  0  0  0
   -8.9348  -10.4523    2.2248 H   0  0  0  0  0
   -6.5199   -4.3564    4.2415 H   0  0  0  0  0
   -8.0684   -5.0644    6.2896 H   0  0  0  0  0
   -8.6511   -7.7411    6.1980 H   0  0  0  0  0
  1  2  1  0  0  0
  1  6  1  0  0  0
  2  3  1  0  0  0
  3  4  1  0  0  0
  4  5  1  0  0  0
  5  6  1  0  0  0
  6  7  1  0  0  0
  7  8  1  0  0  0
  8  9  1  0  0  0
  9 10  2  0  0  0
  9 11  1  0  0  0
 11 12  1  0  0  0
 12 13  4  0  0  0
 12 14  4  0  0  0
 13 23  4  0  0  0
 14 15  4  0  0  0
 15 16  1  0  0  0
 15 22  4  0  0  0
 16 17  2  0  0  0
 16 21  1  0  0  0
 17 18  1  0  0  0
 18 19  1  0  0  0
 19 20  2  0  0  0
 19 21  1  0  0  0
 22 23  4  0  0  0
 23 24  1  0  0  0
 24 25  1  0  0  0
 25 26  2  0  0  0
 25 27  2  0  0  0
 25 28  1  0  0  0
 28 29  4  0  0  0
 28 32  4  0  0  0
 29 30  4  0  0  0
 30 31  4  0  0  0
 31 32  4  0  0  0
  1 33  1  0  0  0
  1 34  1  0  0  0
  2 35  1  0  0  0
  2 36  1  0  0  0
  3 37  1  0  0  0
  3 38  1  0  0  0
  4 39  1  0  0  0
  4 40  1  0  0  0
  5 41  1  0  0  0
  5 42  1  0  0  0
  6 43  1  0  0  0
  7 44  1  0  0  0
  7 45  1  0  0  0
  8 46  1  0  0  0
  8 47  1  0  0  0
 11 48  1  0  0  0
 13 49  1  0  0  0
 14 50  1  0  0  0
 17 51  1  0  0  0
 21 52  1  0  0  0
 22 53  1  0  0  0
 24 54  1  0  0  0
 30 55  1  0  0  0
 31 56  1  0  0  0
 32 57  1  0  0  0
M  END
$$$$
