1ajq_ligand
  -I-interpret- 

 15 15  0  0  0  0  0  0  0  0999 V2000
   10.7570   34.9240   34.3440 S   0  0  0  0  0
   11.8600   36.1590   33.8530 C   0  0  0  0  0
   11.4740   36.7610   32.6620 C   0  0  0  0  0
   10.3000   36.1760   32.1380 C   0  0  0  0  0
    9.7890   35.2230   32.9520 C   0  0  0  0  0
   13.0850   36.5220   34.6440 C   0  0  0  0  0
   12.7140   37.8140   35.4420 C   0  0  0  0  0
   12.0650   38.7630   35.0850 O   0  0  0  0  0
   13.5080   37.7870   36.5060 O   0  0  0  0  0
   12.0111   37.5837   32.1899 H   0  0  0  0  0
    9.8551   36.4603   31.1844 H   0  0  0  0  0
    8.8568   34.6968   32.7466 H   0  0  0  0  0
   13.9408   36.6930   33.9909 H   0  0  0  0  0
   13.3765   35.7135   35.3144 H   0  0  0  0  0
   13.9143   36.9203   36.5787 H   0  0  0  0  0
  1  5  4  0  0  0
  1  2  4  0  0  0
  2  6  1  0  0  0
  2  3  4  0  0  0
  3  4  4  0  0  0
  4  5  4  0  0  0
  6  7  1  0  0  0
  7  9  1  0  0  0
  7  8  2  0  0  0
  3 10  1  0  0  0
  4 11  1  0  0  0
  5 12  1  0  0  0
  6 13  1  0  0  0
  6 14  1  0  0  0
  9 15  1  0  0  0
M  END
$$$$
