2oc4_ligand
  -I-interpret- 

 33 35  0  0  0  0  0  0  0  0999 V2000
   14.1980   12.2040   57.9560 C   0  0  0  0  0
   15.1630   12.6870   57.0880 C   0  0  0  0  0
   15.2610   11.7850   56.0510 N   0  0  0  0  0
   14.4480   10.7210   56.2200 C   0  0  0  0  0
   14.1550    9.4790   55.5060 C   0  0  0  0  0
   14.8050    9.2510   54.3560 O   0  0  0  0  0
   13.2360    8.6100   55.9980 N   0  0  0  0  0
   12.5790    8.8600   57.1340 C   0  0  0  0  0
   12.8040    9.9710   57.8630 N   0  0  0  0  0
   13.7070   10.8950   57.4600 C   0  0  0  0  0
   17.3070   11.4670   60.0490 O   0  0  0  0  0
   16.5910   11.6550   61.2760 C   0  0  0  0  0
   15.5100   12.7120   61.1510 C   0  0  0  0  0
   15.2330   13.2530   59.8070 N   0  3  0  0  0
   14.2040   12.0730   61.5930 C   0  0  0  0  0
   13.7440   12.7910   62.7770 O   0  0  0  0  0
   13.2680   12.0680   60.3560 C   0  0  0  0  0
   11.9580   12.5470   60.6630 O   0  0  0  0  0
   13.9000   12.9260   59.2270 C   0  0  0  0  0
   15.7365   13.6067   57.2033 H   0  0  0  0  0
   13.0427    7.7472   55.4894 H   0  0  0  0  0
   11.8367    8.1420   57.4827 H   0  0  0  0  0
   17.9788   10.7924   60.1720 H   0  0  0  0  0
   17.3001   11.9827   62.0362 H   0  0  0  0  0
   16.1140   10.7108   61.5389 H   0  0  0  0  0
   15.8814   13.5449   61.7480 H   0  0  0  0  0
   15.9244   12.8354   59.1842 H   0  0  0  0  0
   15.2625   14.2686   59.8975 H   0  0  0  0  0
   14.2718   11.0323   61.9098 H   0  0  0  0  0
   12.9175   12.4086   63.0807 H   0  0  0  0  0
   13.1599   11.0350   60.0255 H   0  0  0  0  0
   11.4168   12.5257   59.8704 H   0  0  0  0  0
   13.2190   13.7357   58.9649 H   0  0  0  0  0
  1  2  4  0  0  0
  1 10  4  0  0  0
 19  1  1  0  0  0
  2  3  4  0  0  0
  4  3  4  0  0  0
  4  5  1  0  0  0
 10  4  4  0  0  0
  5  6  2  0  0  0
  5  7  1  0  0  0
  8  7  1  0  0  0
  9  8  2  0  0  0
 10  9  1  0  0  0
 12 11  1  0  0  0
 13 12  1  0  0  0
 14 13  1  0  0  0
 13 15  1  0  0  0
 14 19  1  0  0  0
 15 16  1  0  0  0
 15 17  1  0  0  0
 17 18  1  0  0  0
 17 19  1  0  0  0
  2 20  1  0  0  0
  7 21  1  0  0  0
  8 22  1  0  0  0
 11 23  1  0  0  0
 12 24  1  0  0  0
 12 25  1  0  0  0
 13 26  1  0  0  0
 14 27  1  0  0  0
 14 28  1  0  0  0
 15 29  1  0  0  0
 16 30  1  0  0  0
 17 31  1  0  0  0
 18 32  1  0  0  0
 19 33  1  0  0  0
M  END
$$$$
