2xm9_ligand
  -I-interpret- 

 48 52  0  0  0  0  0  0  0  0999 V2000
   45.5790  -19.1560   -7.4150 C   0  0  0  0  0
   45.7400  -19.8170   -6.2050 C   0  0  0  0  0
   46.5890  -19.3150   -5.2410 C   0  0  0  0  0
   47.2880  -18.1440   -5.4820 C   0  0  0  0  0
   47.1330  -17.4730   -6.6930 C   0  0  0  0  0
   46.2800  -17.9740   -7.6610 C   0  0  0  0  0
   46.1220  -17.3060   -8.8620 C   0  0  0  0  0
   47.6680  -15.6860   -8.1130 C   0  0  0  0  0
   46.8120  -16.1650   -9.0710 N   0  0  0  0  0
   47.8230  -16.3410   -6.9150 N   0  0  0  0  0
   44.9090  -16.9580  -11.0530 C   0  0  0  0  0
   44.4110  -15.5600  -10.8190 C   0  0  0  0  0
   43.7030  -16.3610  -12.8830 C   0  0  0  0  0
   43.9800  -17.5610  -12.0530 C   0  0  0  0  0
   45.2450  -17.7670   -9.9000 N   0  0  0  0  0
   43.4160  -15.3370  -11.8890 N   0  3  0  0  0
   48.3320  -14.3870   -8.4160 C   0  0  0  0  0
   49.0600  -13.7380   -7.4270 C   0  0  0  0  0
   49.5950  -12.4880   -7.7040 C   0  0  0  0  0
   49.3280  -11.8640   -8.9260 C   0  0  0  0  0
   48.5280  -12.4740   -9.8870 C   0  0  0  0  0
   47.9970  -13.7250   -9.6040 C   0  0  0  0  0
   48.2490  -11.7920  -11.1970 C   0  0  0  0  0
   48.4050  -10.4200  -11.4750 C   0  0  0  0  0
   48.0600  -10.1980  -12.7880 C   0  0  0  0  0
   47.8180  -12.3810  -12.3630 N   0  0  0  0  0
   47.6980  -11.4360  -13.3340 N   0  0  0  0  0
   49.3090  -14.3780   -6.2320 O   0  0  0  0  0
   44.9063  -19.5592   -8.1719 H   0  0  0  0  0
   45.1914  -20.7396   -6.0154 H   0  0  0  0  0
   46.7095  -19.8383   -4.2924 H   0  0  0  0  0
   47.9610  -17.7464   -4.7224 H   0  0  0  0  0
   45.9235  -16.9127  -11.4490 H   0  0  0  0  0
   45.2180  -14.8281  -10.8528 H   0  0  0  0  0
   43.9765  -15.4421   -9.8263 H   0  0  0  0  0
   42.8823  -16.5118  -13.5843 H   0  0  0  0  0
   44.5353  -16.0962  -13.5352 H   0  0  0  0  0
   43.0955  -18.0337  -11.6260 H   0  0  0  0  0
   44.3892  -18.4095  -12.6013 H   0  0  0  0  0
   44.8426  -18.7011   -9.8226 H   0  0  0  0  0
   43.4839  -14.3978  -12.2809 H   0  0  0  0  0
   42.4603  -15.4048  -11.5390 H   0  0  0  0  0
   50.2254  -11.9912   -6.9665 H   0  0  0  0  0
   49.7543  -10.8817   -9.1297 H   0  0  0  0  0
   47.3143  -14.1956  -10.3115 H   0  0  0  0  0
   48.7424   -9.6616  -10.7685 H   0  0  0  0  0
   48.0670   -9.2390  -13.3061 H   0  0  0  0  0
   49.8196  -13.7995   -5.6608 H   0  0  0  0  0
  1  2  4  0  0  0
  6  1  4  0  0  0
  2  3  4  0  0  0
  4  3  4  0  0  0
  5  4  4  0  0  0
  6  5  4  0  0  0
  5 10  4  0  0  0
  7  6  4  0  0  0
  7  9  4  0  0  0
 15  7  1  0  0  0
  9  8  4  0  0  0
  8 10  4  0  0  0
  8 17  1  0  0  0
 11 12  1  0  0  0
 11 14  1  0  0  0
 11 15  1  0  0  0
 12 16  1  0  0  0
 14 13  1  0  0  0
 13 16  1  0  0  0
 17 18  4  0  0  0
 17 22  4  0  0  0
 18 19  4  0  0  0
 18 28  1  0  0  0
 19 20  4  0  0  0
 20 21  4  0  0  0
 21 22  4  0  0  0
 21 23  1  0  0  0
 23 24  4  0  0  0
 23 26  4  0  0  0
 24 25  4  0  0  0
 25 27  4  0  0  0
 26 27  4  0  0  0
  1 29  1  0  0  0
  2 30  1  0  0  0
  3 31  1  0  0  0
  4 32  1  0  0  0
 11 33  1  0  0  0
 12 34  1  0  0  0
 12 35  1  0  0  0
 13 36  1  0  0  0
 13 37  1  0  0  0
 14 38  1  0  0  0
 14 39  1  0  0  0
 15 40  1  0  0  0
 16 41  1  0  0  0
 16 42  1  0  0  0
 19 43  1  0  0  0
 20 44  1  0  0  0
 22 45  1  0  0  0
 24 46  1  0  0  0
 25 47  1  0  0  0
 28 48  1  0  0  0
M  END
$$$$
