3tjc_ligand
  -I-interpret- 

 46 49  0  0  0  0  0  0  0  0999 V2000
  109.1460   63.6500    5.2620 C   0  0  0  0  0
  118.4380   68.6310   10.9070 N   0  0  0  0  0
  109.4940   62.9280    4.0980 O   0  0  0  0  0
  114.6260   66.5190   10.8280 S   0  0  0  0  0
  112.8430   64.5170    9.1160 C   0  0  0  0  0
  118.8000   67.9060    8.7460 N   0  0  0  0  0
  114.5320   67.6480   13.5010 O   0  0  0  0  0
  110.9210   62.9900    3.7670 C   0  0  0  0  0
  116.1090   68.9820   14.2930 N   0  0  0  0  0
  111.6500   62.2340    4.8630 C   0  0  0  0  0
  111.3110   62.9430    6.0930 N   0  0  0  0  0
  113.4580   64.0570    6.2970 C   0  0  0  0  0
  109.8480   63.0030    6.4180 C   0  0  0  0  0
  116.1990   66.4170    8.7990 C   0  0  0  0  0
  116.6900   67.1590    9.7790 C   0  0  0  0  0
  115.9430   67.3130   10.9880 C   0  0  0  0  0
  117.9900   67.8970    9.8260 C   0  0  0  0  0
  116.4020   68.0800   12.1220 C   0  0  0  0  0
  115.5960   68.1970   13.3340 C   0  0  0  0  0
  117.6970   68.7430   12.0450 C   0  0  0  0  0
  114.9510   65.9510    9.2760 C   0  0  0  0  0
  115.2220   69.4780   15.3450 C   0  0  0  0  0
  114.0590   65.0510    8.4900 C   0  0  0  0  0
  111.9270   63.7680    8.3390 C   0  0  0  0  0
  112.2250   63.5440    6.9090 C   0  0  0  0  0
  114.3700   64.8020    7.0700 C   0  0  0  0  0
  108.0666   63.6337    5.4131 H   0  0  0  0  0
  109.4466   64.6935    5.1682 H   0  0  0  0  0
  112.6467   64.6963   10.1731 H   0  0  0  0  0
  119.6739   68.4315    8.7683 H   0  0  0  0  0
  118.5381   67.3873    7.9077 H   0  0  0  0  0
  111.2643   64.0230    3.7103 H   0  0  0  0  0
  111.1151   62.5460    2.7907 H   0  0  0  0  0
  117.0988   69.2284   14.2888 H   0  0  0  0  0
  112.7262   62.2090    4.6922 H   0  0  0  0  0
  111.3504   61.1867    4.9023 H   0  0  0  0  0
  113.6671   63.8613    5.2453 H   0  0  0  0  0
  109.4565   61.9994    6.5840 H   0  0  0  0  0
  109.6867   63.5798    7.3287 H   0  0  0  0  0
  116.6576   66.2095    7.8322 H   0  0  0  0  0
  118.0695   69.3229   12.8894 H   0  0  0  0  0
  114.4261   70.0728   14.8969 H   0  0  0  0  0
  114.7885   68.6337   15.8810 H   0  0  0  0  0
  115.7927   70.0958   16.0383 H   0  0  0  0  0
  111.0191   63.3641    8.7870 H   0  0  0  0  0
  115.2884   65.1872    6.6270 H   0  0  0  0  0
  1  3  1  0  0  0
 13  1  1  0  0  0
 17  2  4  0  0  0
  2 20  4  0  0  0
  8  3  1  0  0  0
  4 16  4  0  0  0
 21  4  4  0  0  0
 23  5  4  0  0  0
  5 24  4  0  0  0
 17  6  1  0  0  0
 19  7  2  0  0  0
 10  8  1  0  0  0
 19  9  1  0  0  0
  9 22  1  0  0  0
 11 10  1  0  0  0
 11 13  1  0  0  0
 25 11  1  0  0  0
 12 25  4  0  0  0
 26 12  4  0  0  0
 14 15  4  0  0  0
 21 14  4  0  0  0
 15 16  4  0  0  0
 15 17  4  0  0  0
 16 18  4  0  0  0
 18 19  1  0  0  0
 18 20  4  0  0  0
 23 21  1  0  0  0
 23 26  4  0  0  0
 24 25  4  0  0  0
  1 27  1  0  0  0
  1 28  1  0  0  0
  5 29  1  0  0  0
  6 30  1  0  0  0
  6 31  1  0  0  0
  8 32  1  0  0  0
  8 33  1  0  0  0
  9 34  1  0  0  0
 10 35  1  0  0  0
 10 36  1  0  0  0
 12 37  1  0  0  0
 13 38  1  0  0  0
 13 39  1  0  0  0
 14 40  1  0  0  0
 20 41  1  0  0  0
 22 42  1  0  0  0
 22 43  1  0  0  0
 22 44  1  0  0  0
 24 45  1  0  0  0
 26 46  1  0  0  0
M  END
$$$$
