6s0e_ligand
  -I-interpret- 

 37 37  0  0  0  0  0  0  0  0999 V2000
    7.0280  -23.3140   53.2450 C   0  0  0  0  0
    6.4830  -24.1130   54.3400 C   0  0  0  0  0
    5.9580  -25.3560   54.1220 C   0  0  0  0  0
    5.2980  -26.0980   55.2540 C   0  0  0  0  0
    4.7650  -25.1340   56.3410 C   0  0  0  0  0
    5.9170  -24.2420   56.7250 C   0  0  0  0  0
    5.6500  -23.3410   57.8780 C   0  0  0  0  0
    6.8050  -22.4070   58.1670 C   0  0  0  0  0
    6.4340  -21.4850   59.3250 C   0  0  0  0  0
    3.2460  -26.1690   57.9200 C   0  0  0  0  0
    3.1200  -27.1680   59.0530 C   0  0  0  0  0
    4.4740  -25.9520   57.4700 N   0  0  0  0  0
    7.0190  -23.7660   52.1070 O   0  0  0  0  0
    7.4220  -22.1900   53.4800 O   0  0  0  0  0
    4.3030  -27.0530   54.8280 O   0  0  0  0  0
    6.3440  -23.4280   55.6160 O   0  0  0  0  0
    4.6200  -22.4570   57.5350 O   0  0  0  0  0
    7.9850  -23.0910   58.5140 O   0  0  0  0  0
    7.4440  -20.4610   59.4900 O   0  0  0  0  0
    2.2900  -25.6000   57.4350 O   0  0  0  0  0
    6.0169  -25.8086   53.1322 H   0  0  0  0  0
    6.0854  -26.6984   55.7095 H   0  0  0  0  0
    3.9014  -24.5563   56.0115 H   0  0  0  0  0
    6.6981  -24.9401   57.0261 H   0  0  0  0  0
    5.4390  -23.9963   58.7231 H   0  0  0  0  0
    6.9937  -21.8461   57.2516 H   0  0  0  0  0
    6.3666  -22.0715   60.2413 H   0  0  0  0  0
    5.4760  -21.0110   59.1116 H   0  0  0  0  0
    2.6727  -26.6793   59.9185 H   0  0  0  0  0
    2.4881  -27.9976   58.7357 H   0  0  0  0  0
    4.1089  -27.5430   59.3167 H   0  0  0  0  0
    5.2523  -26.3947   57.9586 H   0  0  0  0  0
    6.6757  -24.6624   52.1226 H   0  0  0  0  0
    4.6787  -27.6267   54.1561 H   0  0  0  0  0
    3.8264  -22.9565   57.3294 H   0  0  0  0  0
    8.6832  -22.4551   58.6865 H   0  0  0  0  0
    7.2004  -19.8876   60.2204 H   0  0  0  0  0
  2  1  1  0  0  0
  1 13  1  0  0  0
  1 14  2  0  0  0
  3  2  2  0  0  0
 16  2  1  0  0  0
  4  3  1  0  0  0
  5  4  1  0  0  0
  4 15  1  0  0  0
  5  6  1  0  0  0
 12  5  1  0  0  0
  6  7  1  0  0  0
  6 16  1  0  0  0
  7  8  1  0  0  0
  7 17  1  0  0  0
  8  9  1  0  0  0
  8 18  1  0  0  0
  9 19  1  0  0  0
 10 11  1  0  0  0
 10 12  1  0  0  0
 10 20  2  0  0  0
  3 21  1  0  0  0
  4 22  1  0  0  0
  5 23  1  0  0  0
  6 24  1  0  0  0
  7 25  1  0  0  0
  8 26  1  0  0  0
  9 27  1  0  0  0
  9 28  1  0  0  0
 11 29  1  0  0  0
 11 30  1  0  0  0
 11 31  1  0  0  0
 12 32  1  0  0  0
 13 33  1  0  0  0
 15 34  1  0  0  0
 17 35  1  0  0  0
 18 36  1  0  0  0
 19 37  1  0  0  0
M  END
$$$$
