3rz1_ligand
  -I-interpret- 

 36 36  0  0  0  0  0  0  0  0999 V2000
   15.0320    0.9630   16.8950 S   0  0  0  0  0
   18.4380    5.7950   13.5160 N   0  0  0  0  0
   16.3570    6.6410   13.5250 O   0  0  0  0  0
   16.6170    4.5570   14.6220 C   0  0  0  0  0
   17.0450    2.4410   15.7830 C   0  0  0  0  0
   17.5010    3.5550   15.0600 C   0  0  0  0  0
   15.6400    2.3200   16.0370 C   0  0  0  0  0
   15.2400    4.4630   14.8810 C   0  0  0  0  0
   14.7530    3.3690   15.5850 C   0  0  0  0  0
   17.1510    5.7170   13.8420 C   0  0  0  0  0
   20.4280    7.4840   14.4460 F   0  0  0  0  0
   18.8090    9.6780   12.2750 F   0  0  0  0  0
   20.7630    9.9010   15.3950 F   0  0  0  0  0
   22.4090   10.0310   13.7550 F   0  0  0  0  0
   18.5620    8.3570   14.5730 F   0  0  0  0  0
   20.7940    8.8810   12.1470 F   0  0  0  0  0
   19.1460   11.0040   14.1990 F   0  0  0  0  0
   21.6080   12.0200   14.4730 F   0  0  0  0  0
   21.0730   11.3970   12.3790 F   0  0  0  0  0
   18.9730    6.8860   12.7310 C   0  0  0  0  0
   13.5690    0.9980   16.7560 O   0  0  0  0  0
   19.4690    7.9620   13.7020 C   0  0  0  0  0
   15.5810    1.0440   18.2360 O   0  0  0  0  0
   19.8650    9.2310   13.0060 C   0  0  0  0  0
   15.6550   -0.3490   16.1820 N   0  0  0  0  0
   20.2590   10.2590   14.1310 C   0  0  0  0  0
   21.4370   10.9980   13.6240 C   0  0  0  0  0
   19.0705    5.0593   13.8307 H   0  0  0  0  0
   17.7437    1.6857   16.1427 H   0  0  0  0  0
   18.5634    3.6450   14.8333 H   0  0  0  0  0
   14.5601    5.2407   14.5331 H   0  0  0  0  0
   13.6866    3.3002   15.7999 H   0  0  0  0  0
   18.2034    7.2935   12.0754 H   0  0  0  0  0
   19.7927    6.5349   12.1042 H   0  0  0  0  0
   15.0403   -1.0172   15.7171 H   0  0  0  0  0
   16.6624   -0.5080   16.1974 H   0  0  0  0  0
  7  1  1  0  0  0
  1 21  2  0  0  0
  1 23  2  0  0  0
  1 25  1  0  0  0
  2 10  1  0  0  0
 20  2  1  0  0  0
 10  3  2  0  0  0
  4  6  4  0  0  0
  4  8  4  0  0  0
 10  4  1  0  0  0
  6  5  4  0  0  0
  5  7  4  0  0  0
  9  7  4  0  0  0
  8  9  4  0  0  0
 22 11  1  0  0  0
 24 12  1  0  0  0
 26 13  1  0  0  0
 27 14  1  0  0  0
 22 15  1  0  0  0
 24 16  1  0  0  0
 26 17  1  0  0  0
 27 18  1  0  0  0
 27 19  1  0  0  0
 22 20  1  0  0  0
 24 22  1  0  0  0
 26 24  1  0  0  0
 26 27  1  0  0  0
  2 28  1  0  0  0
  5 29  1  0  0  0
  6 30  1  0  0  0
  8 31  1  0  0  0
  9 32  1  0  0  0
 20 33  1  0  0  0
 20 34  1  0  0  0
 25 35  1  0  0  0
 25 36  1  0  0  0
M  END
$$$$
