3ryz_ligand
  -I-interpret- 

 33 33  0  0  0  0  0  0  0  0999 V2000
   15.1040    0.9880   16.8390 S   0  0  0  0  0
   18.5310    5.8400   13.5380 N   0  0  0  0  0
   16.4300    6.6550   13.5280 O   0  0  0  0  0
   16.7230    4.6060   14.6110 C   0  0  0  0  0
   17.0410    2.4570   15.8020 C   0  0  0  0  0
   17.5720    3.5920   15.0880 C   0  0  0  0  0
   15.6480    2.3260   16.0060 C   0  0  0  0  0
   15.3340    4.5110   14.8270 C   0  0  0  0  0
   14.7890    3.4040   15.5440 C   0  0  0  0  0
   17.2400    5.7600   13.8490 C   0  0  0  0  0
   20.3320    7.6460   14.7320 F   0  0  0  0  0
   19.1060    9.6650   12.1060 F   0  0  0  0  0
   21.0910   11.1990   13.0750 F   0  0  0  0  0
   18.5850    8.4970   14.5200 F   0  0  0  0  0
   21.0520    8.7730   12.2830 F   0  0  0  0  0
   20.9180   10.1310   14.9930 F   0  0  0  0  0
   19.2270   11.0340   14.2300 F   0  0  0  0  0
   19.0970    6.9690   12.7710 C   0  0  0  0  0
   13.6350    1.0140   16.7140 O   0  0  0  0  0
   19.5480    8.0920   13.7510 C   0  0  0  0  0
   15.6060    1.0450   18.1780 O   0  0  0  0  0
   20.0450    9.2570   12.9640 C   0  0  0  0  0
   15.7080   -0.3050   16.0840 N   0  0  0  0  0
   20.3610   10.4530   13.8530 C   0  0  0  0  0
   19.1550    5.0922   13.8411 H   0  0  0  0  0
   17.7183    1.6948   16.1871 H   0  0  0  0  0
   18.6459    3.6646   14.9159 H   0  0  0  0  0
   14.6718    5.2876   14.4442 H   0  0  0  0  0
   13.7188    3.3664   15.7471 H   0  0  0  0  0
   18.3395    7.3624   12.0932 H   0  0  0  0  0
   19.9564    6.6224   12.1971 H   0  0  0  0  0
   15.0827   -0.9587   15.6127 H   0  0  0  0  0
   16.7149   -0.4681   16.0783 H   0  0  0  0  0
  7  1  1  0  0  0
  1 19  2  0  0  0
  1 21  2  0  0  0
  1 23  1  0  0  0
  2 10  1  0  0  0
 18  2  1  0  0  0
 10  3  2  0  0  0
  4  6  4  0  0  0
  4  8  4  0  0  0
 10  4  1  0  0  0
  6  5  4  0  0  0
  5  7  4  0  0  0
  9  7  4  0  0  0
  8  9  4  0  0  0
 20 11  1  0  0  0
 22 12  1  0  0  0
 24 13  1  0  0  0
 20 14  1  0  0  0
 22 15  1  0  0  0
 24 16  1  0  0  0
 24 17  1  0  0  0
 20 18  1  0  0  0
 22 20  1  0  0  0
 22 24  1  0  0  0
  2 25  1  0  0  0
  5 26  1  0  0  0
  6 27  1  0  0  0
  8 28  1  0  0  0
  9 29  1  0  0  0
 18 30  1  0  0  0
 18 31  1  0  0  0
 23 32  1  0  0  0
 23 33  1  0  0  0
M  END
$$$$
