6f5m_ligand
  -I-interpret- 

 67 69  0  0  0  0  0  0  0  0999 V2000
   41.1820   18.8530   41.0050 C   0  0  0  0  0
   40.0390   16.7620   37.8740 C   0  0  0  0  0
   40.5600   15.7450   38.8890 C   0  0  0  0  0
   42.0470   15.9550   39.1810 C   0  0  0  0  0
   43.0170   15.3440   38.4040 C   0  0  0  0  0
   44.3590   15.5560   38.6890 C   0  0  0  0  0
   44.7260   16.3810   39.7440 C   0  0  0  0  0
   43.7530   16.9980   40.5170 C   0  0  0  0  0
   42.4150   16.7830   40.2300 C   0  0  0  0  0
   40.0550   19.4460   41.8500 C   0  0  0  0  0
   38.5570   17.0780   38.0680 C   0  0  0  0  0
   38.7400   19.4570   41.0730 C   0  0  0  0  0
   37.5290   19.6970   41.9650 C   0  0  0  0  0
   37.2170   18.4570   42.8060 C   0  0  0  0  0
   36.3140   20.1130   41.1380 C   0  0  0  0  0
   41.3990   20.9780   43.3010 C   0  0  0  0  0
   41.7530   22.3760   43.8200 C   0  0  0  0  0
   42.9690   22.5820   44.4480 C   0  0  0  0  0
   43.3010   23.8400   44.9320 C   0  0  0  0  0
   42.4180   24.8990   44.7970 C   0  0  0  0  0
   42.8270   26.2700   45.3480 C   0  0  0  0  0
   41.9830   27.4140   44.7820 C   0  0  0  0  0
   40.2000   29.3670   44.5470 C   0  0  0  0  0
   42.1000   28.0450   43.3470 C   0  0  0  0  0
   41.1950   24.6970   44.1710 C   0  0  0  0  0
   40.8650   23.4360   43.6860 C   0  0  0  0  0
   41.3700   17.4110   41.0200 N   0  0  0  0  0
   40.3690   20.7930   42.2950 N   0  0  0  0  0
   40.9760   29.2600   43.2170 N   0  0  0  0  0
   41.8830   19.5510   40.3510 O   0  0  0  0  0
   41.9650   20.0270   43.7230 O   0  0  0  0  0
   39.3280   30.1340   44.7880 O   0  0  0  0  0
   42.9940   27.6470   42.3470 O   0  0  0  0  0
   40.8030   28.2150   45.5820 S   0  0  0  0  0
   40.1640   16.3367   36.8782 H   0  0  0  0  0
   40.5998   17.6871   38.0075 H   0  0  0  0  0
   40.4274   14.7454   38.4752 H   0  0  0  0  0
   40.0048   15.8697   39.8187 H   0  0  0  0  0
   42.7283   14.7002   37.5732 H   0  0  0  0  0
   45.1263   15.0738   38.0833 H   0  0  0  0  0
   45.7808   16.5442   39.9653 H   0  0  0  0  0
   44.0394   17.6473   41.3443 H   0  0  0  0  0
   39.9472   18.8103   42.7289 H   0  0  0  0  0
   37.9742   16.1637   37.9564 H   0  0  0  0  0
   38.4021   17.4896   39.0653 H   0  0  0  0  0
   38.2410   17.8054   37.3202 H   0  0  0  0  0
   38.6210   18.4800   40.6046 H   0  0  0  0  0
   38.7872   20.2701   40.3486 H   0  0  0  0  0
   37.7692   20.5149   42.6443 H   0  0  0  0  0
   37.0060   17.6156   42.1460 H   0  0  0  0  0
   38.0753   18.2207   43.4349 H   0  0  0  0  0
   36.3483   18.6546   43.4340 H   0  0  0  0  0
   36.5404   21.0334   40.5997 H   0  0  0  0  0
   36.0734   19.3238   40.4257 H   0  0  0  0  0
   35.4643   20.2777   41.8005 H   0  0  0  0  0
   43.6683   21.7538   44.5629 H   0  0  0  0  0
   44.2625   23.9956   45.4213 H   0  0  0  0  0
   43.8638   26.4480   45.0627 H   0  0  0  0  0
   42.6822   26.2518   46.4282 H   0  0  0  0  0
   42.5597   26.5477   45.1062 H   0  0  0  0  0
   42.8183   27.7516   42.5815 H   0  0  0  0  0
   40.4950   25.5251   44.0600 H   0  0  0  0  0
   39.9034   23.2783   43.1976 H   0  0  0  0  0
   40.7583   16.8312   41.5945 H   0  0  0  0  0
   39.8737   21.5957   41.9068 H   0  0  0  0  0
   40.8232   29.8410   42.3927 H   0  0  0  0  0
   42.8627   28.1910   41.5670 H   0  0  0  0  0
 10  1  1  0  0  0
  1 27  1  0  0  0
  1 30  2  0  0  0
  3  2  1  0  0  0
  2 11  1  0  0  0
  4  3  1  0  0  0
  4  5  4  0  0  0
  9  4  4  0  0  0
  5  6  4  0  0  0
  7  6  4  0  0  0
  8  7  4  0  0  0
  9  8  4  0  0  0
 27  9  1  0  0  0
 10 12  1  0  0  0
 28 10  1  0  0  0
 12 13  1  0  0  0
 13 14  1  0  0  0
 13 15  1  0  0  0
 17 16  1  0  0  0
 16 28  1  0  0  0
 16 31  2  0  0  0
 18 17  4  0  0  0
 17 26  4  0  0  0
 19 18  4  0  0  0
 20 19  4  0  0  0
 21 20  1  0  0  0
 20 25  4  0  0  0
 22 21  1  0  0  0
 22 24  1  0  0  0
 34 22  1  0  0  0
 23 29  1  0  0  0
 23 32  2  0  0  0
 23 34  1  0  0  0
 24 29  1  0  0  0
 24 33  1  0  0  0
 25 26  4  0  0  0
  2 35  1  0  0  0
  2 36  1  0  0  0
  3 37  1  0  0  0
  3 38  1  0  0  0
  5 39  1  0  0  0
  6 40  1  0  0  0
  7 41  1  0  0  0
  8 42  1  0  0  0
 10 43  1  0  0  0
 11 44  1  0  0  0
 11 45  1  0  0  0
 11 46  1  0  0  0
 12 47  1  0  0  0
 12 48  1  0  0  0
 13 49  1  0  0  0
 14 50  1  0  0  0
 14 51  1  0  0  0
 14 52  1  0  0  0
 15 53  1  0  0  0
 15 54  1  0  0  0
 15 55  1  0  0  0
 18 56  1  0  0  0
 19 57  1  0  0  0
 21 58  1  0  0  0
 21 59  1  0  0  0
 22 60  1  0  0  0
 24 61  1  0  0  0
 25 62  1  0  0  0
 26 63  1  0  0  0
 27 64  1  0  0  0
 28 65  1  0  0  0
 29 66  1  0  0  0
 33 67  1  0  0  0
M  END
$$$$
