### 
### Created by X-TOOL on Wed Jan  1 15:39:36 2020
### 

@<TRIPOS>MOLECULE
6f5m_ligand
   66    68     1     0     0
SMALL
GAST_HUCK


@<TRIPOS>ATOM
      1 C11        41.1820   18.8530   41.0050 C.2       1 CQH         0.2274
      2 C02        40.0390   16.7620   37.8740 C.3       1 CQH        -0.0481
      3 C03        40.5600   15.7450   38.8890 C.3       1 CQH        -0.0233
      4 C04        42.0470   15.9550   39.1810 C.ar      1 CQH        -0.0211
      5 C05        43.0170   15.3440   38.4040 C.ar      1 CQH        -0.0735
      6 C06        44.3590   15.5560   38.6890 C.ar      1 CQH        -0.0840
      7 C07        44.7260   16.3810   39.7440 C.ar      1 CQH        -0.0825
      8 C08        43.7530   16.9980   40.5170 C.ar      1 CQH        -0.0475
      9 C09        42.4150   16.7830   40.2300 C.ar      1 CQH         0.0689
     10 C13        40.0550   19.4460   41.8500 C.3       1 CQH         0.1358
     11 C01        38.5570   17.0780   38.0680 C.3       1 CQH        -0.0637
     12 C14        38.7400   19.4570   41.0730 C.3       1 CQH        -0.0097
     13 C15        37.5290   19.6970   41.9650 C.3       1 CQH        -0.0425
     14 C16        37.2170   18.4570   42.8060 C.3       1 CQH        -0.0625
     15 C17        36.3140   20.1130   41.1380 C.3       1 CQH        -0.0625
     16 C19        41.3990   20.9780   43.3010 C.2       1 CQH         0.1980
     17 C21        41.7530   22.3760   43.8200 C.ar      1 CQH         0.0376
     18 C22        42.9690   22.5820   44.4480 C.ar      1 CQH        -0.0528
     19 C23        43.3010   23.8400   44.9320 C.ar      1 CQH        -0.0570
     20 C24        42.4180   24.8990   44.7970 C.ar      1 CQH        -0.0343
     21 C25        42.8270   26.2700   45.3480 C.3       1 CQH         0.0096
     22 C26        41.9830   27.4140   44.7820 C.2       1 CQH         0.0432
     23 C28        40.2000   29.3670   44.5470 C.2       1 CQH         0.2528
     24 C31        42.1000   28.0450   43.3470 C.3       1 CQH         0.1671
     25 C33        41.1950   24.6970   44.1710 C.ar      1 CQH        -0.0570
     26 C34        40.8650   23.4360   43.6860 C.ar      1 CQH        -0.0528
     27 N10        41.3700   17.4110   41.0200 N.am      1 CQH        -0.2350
     28 N18        40.3690   20.7930   42.2950 N.am      1 CQH        -0.2664
     29 N30        40.9760   29.2600   43.2170 N.am      1 CQH        -0.2414
     30 O12        41.8830   19.5510   40.3510 O.2       1 CQH        -0.3832
     31 O20        41.9650   20.0270   43.7230 O.2       1 CQH        -0.3907
     32 O29        39.3280   30.1340   44.7880 O.2       1 CQH        -0.3813
     33 O32        42.9940   27.6470   42.3470 O.3       1 CQH        -0.3597
     34 S27        40.8030   28.2150   45.5820 S.3       1 CQH         0.0033
     35 H1         40.1832   16.3556   36.8620 H         1 CQH         0.0281
     36 H2         40.6148   17.6932   37.9807 H         1 CQH         0.0281
     37 H3         40.4145   14.7317   38.4865 H         1 CQH         0.0397
     38 H4         39.9933   15.8524   39.8256 H         1 CQH         0.0397
     39 H5         42.7299   14.7037   37.5778 H         1 CQH         0.0513
     40 H6         45.1221   15.0765   38.0867 H         1 CQH         0.0470
     41 H7         45.7749   16.5433   39.9641 H         1 CQH         0.0520
     42 H8         44.0378   17.6438   41.3398 H         1 CQH         0.0480
     43 H9         39.9274   18.8111   42.7391 H         1 CQH         0.0804
     44 H10        38.2369   17.8120   37.3139 H         1 CQH         0.0231
     45 H11        38.3993   17.4936   39.0742 H         1 CQH         0.0231
     46 H12        37.9677   16.1560   37.9556 H         1 CQH         0.0231
     47 H13        38.6200   18.4853   40.5716 H         1 CQH         0.0315
     48 H14        38.7844   20.2561   40.3184 H         1 CQH         0.0315
     49 H15        37.7710   20.5216   42.6516 H         1 CQH         0.0298
     50 H16        36.3404   18.6552   43.4402 H         1 CQH         0.0232
     51 H17        38.0825   18.2175   43.4413 H         1 CQH         0.0232
     52 H18        37.0038   17.6071   42.1411 H         1 CQH         0.0232
     53 H19        36.5629   21.0044   40.5436 H         1 CQH         0.0232
     54 H20        35.4743   20.3433   41.8102 H         1 CQH         0.0232
     55 H21        36.0299   19.2909   40.4646 H         1 CQH         0.0232
     56 H22        43.6644   21.7583   44.5623 H         1 CQH         0.0635
     57 H23        44.2572   23.9947   45.4187 H         1 CQH         0.0553
     58 H24        43.8812   26.4513   45.0916 H         1 CQH         0.0586
     59 H25        42.7126   26.2572   46.4420 H         1 CQH         0.0586
     60 H26        42.8659   28.7547   43.6930 H         1 CQH         0.1003
     61 H27        40.4989   25.5206   44.0606 H         1 CQH         0.0553
     62 H28        39.9087   23.2792   43.2003 H         1 CQH         0.0635
     63 H29        40.7703   16.8425   41.5832 H         1 CQH         0.2235
     64 H30        39.8834   21.5800   41.9144 H         1 CQH         0.1872
     65 H31        40.8262   29.8296   42.4088 H         1 CQH         0.1915
     66 H32        43.5307   26.9326   42.6696 H         1 CQH         0.2158
@<TRIPOS>BOND
     1   10    1 1  
     2    1   27 am 
     3    1   30 2  
     4    3    2 1  
     5    2   11 1  
     6    4    3 1  
     7    4    5 ar 
     8    9    4 ar 
     9    5    6 ar 
    10    7    6 ar 
    11    8    7 ar 
    12    9    8 ar 
    13   27    9 1  
    14   10   12 1  
    15   28   10 1  
    16   12   13 1  
    17   13   14 1  
    18   13   15 1  
    19   17   16 1  
    20   16   28 am 
    21   16   31 2  
    22   18   17 ar 
    23   17   26 ar 
    24   19   18 ar 
    25   20   19 ar 
    26   21   20 1  
    27   20   25 ar 
    28   22   21 1  
    29   22   24 1  
    30   34   22 1  
    31   23   29 am 
    32   23   32 2  
    33   23   34 1  
    34   24   29 1  
    35   24   33 1  
    36   25   26 ar 
    37    2   35 1  
    38    2   36 1  
    39    3   37 1  
    40    3   38 1  
    41    5   39 1  
    42    6   40 1  
    43    7   41 1  
    44    8   42 1  
    45   10   43 1  
    46   11   44 1  
    47   11   45 1  
    48   11   46 1  
    49   12   47 1  
    50   12   48 1  
    51   13   49 1  
    52   14   50 1  
    53   14   51 1  
    54   14   52 1  
    55   15   53 1  
    56   15   54 1  
    57   15   55 1  
    58   18   56 1  
    59   19   57 1  
    60   21   58 1  
    61   21   59 1  
    62   24   60 1  
    63   25   61 1  
    64   26   62 1  
    65   27   63 1  
    66   28   64 1  
    67   29   65 1  
    68   33   66 1  
@<TRIPOS>SUBSTRUCTURE
     1 CQH         1

