2h13_ligand
  -I-interpret- 

 81 80  0  0  0  0  0  0  0  0999 V2000
  -11.2080  -29.5380   -7.6050 N   0  3  0  0  0
  -11.7120  -28.1300   -7.6950 C   0  0  0  0  0
  -13.2390  -28.0620   -7.5470 C   0  0  0  0  0
  -13.9070  -29.0970   -7.6000 O   0  0  0  0  0
  -11.3150  -27.5110   -9.0160 C   0  0  0  0  0
  -13.7610  -26.8450   -7.3970 N   0  0  0  0  0
  -15.1750  -26.5820   -7.1780 C   0  0  0  0  0
  -16.0810  -27.2910   -8.1750 C   0  0  0  0  0
  -17.2710  -27.5150   -7.9390 O   0  0  0  0  0
  -15.3930  -25.0500   -7.3420 C   0  0  0  0  0
  -16.7820  -24.5270   -7.0850 C   0  0  0  0  0
  -16.8290  -23.0250   -7.2990 C   0  0  0  0  0
  -15.9160  -22.3160   -6.3900 N   0  0  0  0  0
  -16.3030  -21.7690   -5.2310 C   0  0  0  0  0
  -17.6010  -21.8790   -4.8270 N   0  0  0  0  0
  -15.4300  -21.1220   -4.4510 N   0  0  0  0  0
  -15.5290  -27.5420   -9.3510 N   0  0  0  0  0
  -16.3170  -28.1160  -10.4540 C   0  0  0  0  0
  -16.5290  -29.6190  -10.3350 C   0  0  0  0  0
  -17.2110  -30.2120  -11.1920 O   0  0  0  0  0
  -15.6250  -27.7550  -11.7560 C   0  0  0  0  0
  -14.2820  -28.2010  -11.6650 O   0  0  0  0  0
  -15.6480  -26.2560  -11.9560 C   0  0  0  0  0
  -16.0070  -30.1950   -9.2420 N   0  0  0  0  0
  -16.2640  -31.5950   -8.8440 C   0  0  0  0  0
  -14.9450  -32.3860   -8.8620 C   0  0  0  0  0
  -14.4050  -32.5880  -10.2370 C   0  0  0  0  0
  -16.8850  -31.7070   -7.4330 C   0  0  0  0  0
  -16.9150  -30.7220   -6.6760 O   0  0  0  0  0
  -17.3670  -32.9210   -7.1560 N   0  0  0  0  0
  -17.6590  -33.5580   -5.8410 C   0  0  0  0  0
  -19.1510  -33.5530   -5.4730 C   0  0  0  0  0
  -19.9890  -33.7900   -6.3650 O   0  0  0  0  0
  -16.6820  -33.1930   -4.6860 C   0  0  0  0  0
  -17.1990  -32.1820   -3.6580 C   0  0  0  0  0
  -17.1090  -32.6620   -2.2000 C   0  0  0  0  0
  -17.4610  -33.8020   -1.8580 O   0  0  0  0  0
  -16.6700  -31.7630   -1.3250 N   0  0  0  0  0
  -19.5408  -33.3007   -4.2267 O   0  0  0  0  0
  -10.1932  -29.5418   -7.7075 H   0  0  0  0  0
  -11.4608  -29.9311   -6.6984 H   0  0  0  0  0
  -11.6281  -30.0964   -8.3481 H   0  0  0  0  0
  -11.2595  -27.5737   -6.8741 H   0  0  0  0  0
  -11.7878  -28.0606   -9.8300 H   0  0  0  0  0
  -11.6405  -26.4710   -9.0409 H   0  0  0  0  0
  -10.2315  -27.5567   -9.1262 H   0  0  0  0  0
  -13.1281  -26.0462   -7.4384 H   0  0  0  0  0
  -15.4330  -26.9504   -6.1851 H   0  0  0  0  0
  -15.1800  -24.8289   -8.3879 H   0  0  0  0  0
  -14.7536  -24.5765   -6.5970 H   0  0  0  0  0
  -17.0598  -24.7479   -6.0544 H   0  0  0  0  0
  -17.4756  -25.0062   -7.7759 H   0  0  0  0  0
  -17.8446  -22.6820   -7.1013 H   0  0  0  0  0
  -16.5239  -22.8149   -8.3241 H   0  0  0  0  0
  -14.9348  -22.2367   -6.6570 H   0  0  0  0  0
  -17.8954  -21.4706   -3.9399 H   0  0  0  0  0
  -18.2774  -22.3697   -5.4119 H   0  0  0  0  0
  -14.4542  -21.0401   -4.7365 H   0  0  0  0  0
  -14.5409  -27.3343   -9.4957 H   0  0  0  0  0
  -17.3207  -27.6925  -10.4183 H   0  0  0  0  0
  -16.1331  -28.2234  -12.5989 H   0  0  0  0  0
  -13.8186  -27.9852  -12.4776 H   0  0  0  0  0
  -16.6814  -25.9112  -11.9909 H   0  0  0  0  0
  -15.1300  -25.7723  -11.1279 H   0  0  0  0  0
  -15.1490  -26.0080  -12.8928 H   0  0  0  0  0
  -15.3957  -29.6329   -8.6497 H   0  0  0  0  0
  -16.9773  -32.0034   -9.5599 H   0  0  0  0  0
  -15.1419  -33.3694   -8.4350 H   0  0  0  0  0
  -14.2082  -31.8155   -8.2966 H   0  0  0  0  0
  -15.1310  -33.1404  -10.8336 H   0  0  0  0  0
  -14.2165  -31.6184  -10.6980 H   0  0  0  0  0
  -13.4741  -33.1523  -10.1811 H   0  0  0  0  0
  -17.5661  -33.5021   -7.9703 H   0  0  0  0  0
  -17.4261  -34.6112   -5.9979 H   0  0  0  0  0
  -15.8132  -32.7323   -5.1561 H   0  0  0  0  0
  -16.4986  -34.1175   -4.1385 H   0  0  0  0  0
  -18.2535  -32.0129   -3.8760 H   0  0  0  0  0
  -16.5762  -31.2914   -3.7420 H   0  0  0  0  0
  -16.6137  -32.0004   -0.3346 H   0  0  0  0  0
  -16.3894  -30.8357   -1.6439 H   0  0  0  0  0
  -18.7697  -33.1419   -3.6774 H   0  0  0  0  0
  2  1  1  0  0  0
  2  5  1  0  0  0
  3  2  1  0  0  0
  3  4  2  0  0  0
  7  6  1  0  0  0
  7 10  1  0  0  0
  8  7  1  0  0  0
  8  9  2  0  0  0
 10 11  1  0  0  0
 11 12  1  0  0  0
 12 13  1  0  0  0
 13 14  1  0  0  0
 14 16  2  0  0  0
 14 15  1  0  0  0
  6  3  1  0  0  0
 18 17  1  0  0  0
 18 21  1  0  0  0
 19 18  1  0  0  0
 19 20  2  0  0  0
 21 23  1  0  0  0
 21 22  1  0  0  0
 17  8  1  0  0  0
 30 31  1  0  0  0
 31 34  1  0  0  0
 31 32  1  0  0  0
 32 33  2  0  0  0
 34 35  1  0  0  0
 35 36  1  0  0  0
 36 38  1  0  0  0
 36 37  2  0  0  0
 25 24  1  0  0  0
 25 26  1  0  0  0
 28 25  1  0  0  0
 26 27  1  0  0  0
 28 29  2  0  0  0
 24 19  1  0  0  0
 28 30  1  0  0  0
 32 39  1  0  0  0
  1 40  1  0  0  0
  1 41  1  0  0  0
  1 42  1  0  0  0
  2 43  1  0  0  0
  5 44  1  0  0  0
  5 45  1  0  0  0
  5 46  1  0  0  0
  6 47  1  0  0  0
  7 48  1  0  0  0
 10 49  1  0  0  0
 10 50  1  0  0  0
 11 51  1  0  0  0
 11 52  1  0  0  0
 12 53  1  0  0  0
 12 54  1  0  0  0
 13 55  1  0  0  0
 15 56  1  0  0  0
 15 57  1  0  0  0
 16 58  1  0  0  0
 17 59  1  0  0  0
 18 60  1  0  0  0
 21 61  1  0  0  0
 22 62  1  0  0  0
 23 63  1  0  0  0
 23 64  1  0  0  0
 23 65  1  0  0  0
 24 66  1  0  0  0
 25 67  1  0  0  0
 26 68  1  0  0  0
 26 69  1  0  0  0
 27 70  1  0  0  0
 27 71  1  0  0  0
 27 72  1  0  0  0
 30 73  1  0  0  0
 31 74  1  0  0  0
 34 75  1  0  0  0
 34 76  1  0  0  0
 35 77  1  0  0  0
 35 78  1  0  0  0
 38 79  1  0  0  0
 38 80  1  0  0  0
 39 81  1  0  0  0
M  END
$$$$
