3tif_ligand
  -I-interpret- 

 42 44  0  0  0  0  0  0  0  0999 V2000
   30.6760    4.8350  -12.9890 P   0  0  0  0  0
   29.9120    5.3370  -14.1710 O   0  0  0  0  0
   29.7150    4.1720  -12.0200 O   0  0  0  0  0
   31.3610    5.9480  -12.2680 O   0  0  0  0  0
   31.8660    3.5110  -14.9890 P   0  0  0  0  0
   31.5610    2.1790  -15.6540 O   0  0  0  0  0
   32.6160    4.5780  -15.8650 O   0  0  0  0  0
   31.7520    3.7610  -13.4400 O   0  0  0  0  0
   33.2390    2.8070  -14.6770 O   0  0  0  0  0
   33.3520    1.5620  -14.0700 C   0  0  0  0  0
   34.7310    0.9910  -13.7970 C   0  0  0  0  0
   35.3480    0.4240  -14.9360 O   0  0  0  0  0
   35.6940    1.9810  -13.2020 C   0  0  0  0  0
   36.3230    1.5480  -12.0290 O   0  0  0  0  0
   36.6790    2.2090  -14.2200 C   0  0  0  0  0
   37.9490    2.4900  -13.7070 O   0  0  0  0  0
   36.6710    0.9710  -15.0570 C   0  0  0  0  0
   36.9860    1.1890  -16.4590 N   0  0  0  0  0
   36.2600    1.9240  -17.3250 C   0  0  0  0  0
   36.8500    1.8880  -18.5310 N   0  0  0  0  0
   37.9670    1.1200  -18.4150 C   0  0  0  0  0
   38.9550    0.7380  -19.3270 C   0  0  0  0  0
   38.8890    1.1700  -20.6670 N   0  0  0  0  0
   39.9660   -0.0440  -18.9220 N   0  0  0  0  0
   40.0270   -0.4630  -17.6430 C   0  0  0  0  0
   39.0920   -0.1180  -16.7380 N   0  0  0  0  0
   38.0590    0.6740  -17.1050 C   0  0  0  0  0
   29.4846    4.5988  -14.6114 H   0  0  0  0  0
   29.2619    3.4510  -12.4633 H   0  0  0  0  0
   32.7553    5.3745  -15.3475 H   0  0  0  0  0
   32.8976    0.8663  -14.7754 H   0  0  0  0  0
   32.9044    1.6913  -13.0846 H   0  0  0  0  0
   34.5235    0.2077  -13.0680 H   0  0  0  0  0
   35.1459    2.8756  -12.9065 H   0  0  0  0  0
   36.9179    2.2328  -11.7147 H   0  0  0  0  0
   36.4346    3.0969  -14.8030 H   0  0  0  0  0
   38.5615    2.6324  -14.4323 H   0  0  0  0  0
   37.4532    0.3019  -14.6984 H   0  0  0  0  0
   35.3422    2.4609  -17.0852 H   0  0  0  0  0
   38.1184    1.7635  -20.9742 H   0  0  0  0  0
   39.6119    0.8892  -21.3296 H   0  0  0  0  0
   40.8561   -1.0988  -17.3325 H   0  0  0  0  0
  1  2  1  0  0  0
  1  3  1  0  0  0
  1  4  2  0  0  0
  8  1  1  0  0  0
  5  6  2  0  0  0
  5  7  1  0  0  0
  5  8  1  0  0  0
  5  9  1  0  0  0
  9 10  1  0  0  0
 10 11  1  0  0  0
 11 12  1  0  0  0
 11 13  1  0  0  0
 12 17  1  0  0  0
 13 14  1  0  0  0
 13 15  1  0  0  0
 15 16  1  0  0  0
 15 17  1  0  0  0
 17 18  1  0  0  0
 18 19  4  0  0  0
 18 27  4  0  0  0
 19 20  4  0  0  0
 20 21  4  0  0  0
 21 22  4  0  0  0
 21 27  4  0  0  0
 22 23  1  0  0  0
 22 24  4  0  0  0
 24 25  4  0  0  0
 25 26  4  0  0  0
 26 27  4  0  0  0
  2 28  1  0  0  0
  3 29  1  0  0  0
  7 30  1  0  0  0
 10 31  1  0  0  0
 10 32  1  0  0  0
 11 33  1  0  0  0
 13 34  1  0  0  0
 14 35  1  0  0  0
 15 36  1  0  0  0
 16 37  1  0  0  0
 17 38  1  0  0  0
 19 39  1  0  0  0
 23 40  1  0  0  0
 23 41  1  0  0  0
 25 42  1  0  0  0
M  END
$$$$
