3gjd_ligand
  -I-interpret- 

 23 22  0  0  0  0  0  0  0  0999 V2000
   24.4350   31.5170   18.9020 N   0  3  0  0  0
   25.6900   30.7610   18.9070 C   0  0  0  0  0
   25.5600   29.4450   18.1520 C   0  0  0  0  0
   26.5280   28.6820   18.0100 O   0  0  0  0  0
   26.1120   30.4470   20.3320 C   0  0  0  0  0
   26.1740   31.6250   21.3020 C   0  0  0  0  0
   26.6860   31.1250   22.6270 C   0  0  0  0  0
   27.0820   32.7210   20.7570 C   0  0  0  0  0
   24.4650   29.1060   17.6970 O   0  0  0  0  0
   24.1655   31.7198   17.9394 H   0  0  0  0  0
   23.7049   30.9646   19.3516 H   0  0  0  0  0
   24.5640   32.3911   19.4115 H   0  0  0  0  0
   26.4360   31.3843   18.4140 H   0  0  0  0  0
   27.3060   29.0758   18.4116 H   0  0  0  0  0
   27.1279   30.0575   20.2662 H   0  0  0  0  0
   25.3547   29.7705   20.7281 H   0  0  0  0  0
   25.1790   32.0521   21.4275 H   0  0  0  0  0
   27.6904   30.7216   22.4982 H   0  0  0  0  0
   26.7129   31.9496   23.3393 H   0  0  0  0  0
   26.0240   30.3431   22.9992 H   0  0  0  0  0
   27.1104   33.5516   21.4622 H   0  0  0  0  0
   28.0878   32.3236   20.6211 H   0  0  0  0  0
   26.6949   33.0689   19.7993 H   0  0  0  0  0
  1  2  1  0  0  0
  2  3  1  0  0  0
  2  5  1  0  0  0
  3  4  1  0  0  0
  3  9  2  0  0  0
  5  6  1  0  0  0
  6  7  1  0  0  0
  6  8  1  0  0  0
  1 10  1  0  0  0
  1 11  1  0  0  0
  1 12  1  0  0  0
  2 13  1  0  0  0
  4 14  1  0  0  0
  5 15  1  0  0  0
  5 16  1  0  0  0
  6 17  1  0  0  0
  7 18  1  0  0  0
  7 19  1  0  0  0
  7 20  1  0  0  0
  8 21  1  0  0  0
  8 22  1  0  0  0
  8 23  1  0  0  0
M  END
$$$$
