### 
### Created by X-TOOL on Mon Sep 10 21:13:09 2018
### 

@<TRIPOS>MOLECULE
4h3b_ligand
  155   156     1     0     0
SMALL
GAST_HUCK


@<TRIPOS>ATOM
      1 N          -6.5020   34.9130   22.9400 N.4       1 VAL         0.2381
      2 CA         -7.6290   34.1380   23.4510 C.3       1 VAL         0.0673
      3 C          -7.2440   32.6650   23.4970 C.2       1 VAL         0.2270
      4 O          -6.2780   32.2520   22.8520 O.2       1 VAL        -0.3907
      5 CB         -8.8890   34.3200   22.5660 C.3       1 VAL         0.0139
      6 CG1       -10.1530   33.8930   23.3120 C.3       1 VAL        -0.0553
      7 CG2        -9.0160   35.7650   22.1120 C.3       1 VAL        -0.0553
      8 N          -7.9860   31.8760   24.2690 N.am      1 VAL        -0.2608
      9 CA         -7.7550   30.4390   24.3080 C.3       1 VAL         0.1334
     10 C          -8.4840   29.7490   23.1540 C.2       1 VAL         0.2042
     11 O          -9.6400   30.0600   22.8440 O.2       1 VAL        -0.3944
     12 CB         -8.1300   29.8090   25.6860 C.3       1 VAL        -0.0063
     13 CG1        -9.6460   29.6050   25.8240 C.3       1 VAL        -0.0584
     14 CG2        -7.3960   28.4970   25.8840 C.3       1 VAL        -0.0584
     15 N          -7.7850   28.8350   22.4930 N.am      1 ARG        -0.2637
     16 CA         -8.3950   28.0560   21.4290 C.3       1 ARG         0.1313
     17 C          -9.2020   26.9460   22.0580 C.2       1 ARG         0.2064
     18 O          -8.7980   26.3820   23.0690 O.2       1 ARG        -0.3942
     19 CB         -7.3300   27.4950   20.4890 C.3       1 ARG        -0.0092
     20 CG         -6.6800   28.5790   19.6570 C.3       1 ARG        -0.0156
     21 CD         -5.3150   28.1800   19.1560 C.3       1 ARG         0.0627
     22 NE         -4.8160   29.1570   18.1960 N.pl3     1 ARG        -0.2723
     23 CZ         -3.9480   28.8670   17.2370 C.cat     1 ARG         0.2882
     24 NH1        -3.4790   27.6310   17.1330 N.pl3     1 ARG        -0.2849
     25 NH2        -3.5470   29.8090   16.3890 N.pl3     1 ARG        -0.2849
     26 N         -10.3680   26.6510   21.4770 N.am      1 PRO        -0.2498
     27 CA        -11.1800   25.5570   21.9990 C.3       1 PRO         0.1338
     28 C         -10.3290   24.3030   21.9850 C.2       1 PRO         0.2039
     29 O          -9.5620   24.0980   21.0380 O.2       1 PRO        -0.3944
     30 CB        -12.3170   25.4480   20.9800 C.3       1 PRO        -0.0104
     31 CG        -12.3900   26.8060   20.3410 C.3       1 PRO        -0.0281
     32 CD        -10.9850   27.3110   20.3130 C.3       1 PRO         0.0369
     33 N         -10.4310   23.4990   23.0330 N.am      1 GLY        -0.2664
     34 CA         -9.5840   22.3300   23.1570 C.3       1 GLY         0.1201
     35 C         -10.4320   21.0890   23.1750 C.2       1 GLY         0.2008
     36 O          -9.9340   19.9960   23.4400 O.2       1 GLY        -0.3947
     37 N         -11.7240   21.2570   22.8960 N.am      1 SER        -0.2618
     38 CA        -12.6350   20.1110   22.8480 C.3       1 SER         0.1539
     39 C         -13.7150   20.2620   21.7860 C.2       1 SER         0.2062
     40 O         -14.1060   21.3740   21.4330 O.2       1 SER        -0.3943
     41 CB        -13.2930   19.8870   24.2110 C.3       1 SER         0.0843
     42 OG        -13.9190   21.0780   24.6500 O.3       1 SER        -0.3903
     43 N         -14.2100   19.1290   21.3040 N.am      1 LEU        -0.2636
     44 CA        -15.2600   19.1110   20.2970 C.3       1 LEU         0.1312
     45 C         -16.1630   17.9190   20.5570 C.2       1 LEU         0.2040
     46 O         -15.7360   16.7580   20.5050 O.2       1 LEU        -0.3944
     47 CB        -14.6620   19.0410   18.8860 C.3       1 LEU        -0.0101
     48 CG        -15.6580   19.0790   17.7190 C.3       1 LEU        -0.0425
     49 CD1       -16.3440   20.4350   17.6300 C.3       1 LEU        -0.0625
     50 CD2       -14.9610   18.7350   16.3990 C.3       1 LEU        -0.0625
     51 N         -17.4220   18.2200   20.8360 N.am      1 ASP        -0.2622
     52 CA        -18.3520   17.2400   21.3750 C.3       1 ASP         0.1423
     53 C         -18.8840   16.2950   20.2990 C.2       1 ASP         0.2056
     54 O         -20.0590   16.3470   19.9300 O.2       1 ASP        -0.3943
     55 CB        -19.4950   17.9730   22.0870 C.3       1 ASP         0.0406
     56 CG        -20.3100   17.0640   22.9830 C.2       1 ASP         0.0393
     57 OD1       -21.4430   17.4600   23.3420 O.co2     1 ASP        -0.5688
     58 OD2       -19.8240   15.9610   23.3250 O.co2     1 ASP        -0.5688
     59 N         -18.0130   15.4250   19.8030 N.am      1 LEU        -0.2636
     60 CA        -18.3850   14.5130   18.7260 C.3       1 LEU         0.1314
     61 C         -19.1370   13.3060   19.2670 C.2       1 LEU         0.2058
     62 O         -18.8280   12.8190   20.3540 O.2       1 LEU        -0.3942
     63 CB        -17.1430   14.0280   17.9640 C.3       1 LEU        -0.0101
     64 CG        -16.2350   15.0630   17.2980 C.3       1 LEU        -0.0425
     65 CD1       -14.9160   14.4150   16.9210 C.3       1 LEU        -0.0625
     66 CD2       -16.9100   15.6590   16.0750 C.3       1 LEU        -0.0625
     67 N         -20.1280   12.8210   18.5020 N.am      1 PRO        -0.2556
     68 CA        -20.8090   11.5560   18.7970 C.3       1 PRO         0.0972
     69 C         -19.9770   10.3620   18.3420 C.2       1 PRO         0.0603
     70 O         -19.1775    9.8194   19.1507 O.co2     1 PRO        -0.5666
     71 CB        -22.0830   11.6480   17.9600 C.3       1 PRO        -0.0159
     72 CG        -21.7000   12.5220   16.8060 C.3       1 PRO        -0.0288
     73 CD        -20.7540   13.5390   17.3750 C.3       1 PRO         0.0362
     74 H          -5.6919   34.7712   23.5434 H         1 VAL         0.2015
     75 H          -6.2804   34.6048   21.9933 H         1 VAL         0.2015
     76 H          -6.7492   35.9025   22.9276 H         1 VAL         0.2015
     77 H          -7.8673   34.4966   24.4524 H         1 VAL         0.1101
     78 H          -8.7763   33.6815   21.6898 H         1 VAL         0.0376
     79 H         -10.2923   34.5324   24.1837 H         1 VAL         0.0236
     80 H         -11.0135   33.9870   22.6496 H         1 VAL         0.0236
     81 H         -10.0513   32.8562   23.6328 H         1 VAL         0.0236
     82 H          -9.8749   35.8617   21.4479 H         1 VAL         0.0236
     83 H          -9.1537   36.4071   22.9820 H         1 VAL         0.0236
     84 H          -8.1102   36.0588   21.5817 H         1 VAL         0.0236
     85 H          -8.7262   32.2828   24.8409 H         1 VAL         0.1885
     86 H          -6.6842   30.2773   24.1838 H         1 VAL         0.0802
     87 H          -7.8214   30.5072   26.4640 H         1 VAL         0.0343
     88 H         -10.1502   30.5675   25.7377 H         1 VAL         0.0234
     89 H          -9.9949   28.9386   25.0352 H         1 VAL         0.0234
     90 H          -9.8650   29.1646   26.7967 H         1 VAL         0.0234
     91 H          -7.6720   27.8042   25.0891 H         1 VAL         0.0234
     92 H          -6.3211   28.6755   25.8551 H         1 VAL         0.0234
     93 H          -7.6691   28.0715   26.8496 H         1 VAL         0.0234
     94 H          -6.8068   28.6773   22.7350 H         1 ARG         0.1883
     95 H          -9.0483   28.6912   20.8308 H         1 ARG         0.0800
     96 H          -7.8107   26.7884   19.8125 H         1 ARG         0.0313
     97 H          -6.5574   27.0204   21.0940 H         1 ARG         0.0313
     98 H          -6.5633   29.4617   20.2857 H         1 ARG         0.0301
     99 H          -7.3153   28.7656   18.7912 H         1 ARG         0.0301
    100 H          -5.3880   27.2088   18.6665 H         1 ARG         0.0689
    101 H          -4.6283   28.1322   20.0011 H         1 ARG         0.0689
    102 H          -5.1535   30.1170   18.2661 H         1 ARG         0.2642
    103 H          -3.7864   26.9121   17.7880 H         1 ARG         0.2615
    104 H          -2.8108   27.3992   16.3980 H         1 ARG         0.2615
    105 H          -3.9074   30.7594   16.4748 H         1 ARG         0.2615
    106 H          -2.8790   29.5814   15.6526 H         1 ARG         0.2615
    107 H         -11.5489   25.7033   23.0142 H         1 PRO         0.0802
    108 H         -13.2596   25.1698   21.4514 H         1 PRO         0.0313
    109 H         -12.1311   24.6635   20.2465 H         1 PRO         0.0313
    110 H         -13.0435   27.4755   20.9002 H         1 PRO         0.0287
    111 H         -12.8150   26.7530   19.3387 H         1 PRO         0.0287
    112 H         -10.4735   27.0807   19.3784 H         1 PRO         0.0524
    113 H         -10.9274   28.3982   20.3661 H         1 PRO         0.0524
    114 H         -11.1143   23.7055   23.7616 H         1 GLY         0.1881
    115 H          -9.0157   22.3926   24.0850 H         1 GLY         0.0763
    116 H          -8.9002   22.2879   22.3092 H         1 GLY         0.0763
    117 H         -12.0828   22.1943   22.7138 H         1 SER         0.1884
    118 H         -12.0264   19.2466   22.5824 H         1 SER         0.0823
    119 H         -12.5301   19.5965   24.9333 H         1 SER         0.0606
    120 H         -14.0426   19.1007   24.1216 H         1 SER         0.0606
    121 H         -14.3283   20.9266   25.5051 H         1 SER         0.2097
    122 H         -13.8427   18.2427   21.6504 H         1 LEU         0.1883
    123 H         -15.8407   20.0312   20.3603 H         1 LEU         0.0800
    124 H         -14.1553   18.0782   18.8198 H         1 LEU         0.0315
    125 H         -14.0364   19.9271   18.7785 H         1 LEU         0.0315
    126 H         -16.4242   18.3267   17.9064 H         1 LEU         0.0298
    127 H         -16.8836   20.6293   18.5569 H         1 LEU         0.0232
    128 H         -15.5940   21.2107   17.4752 H         1 LEU         0.0232
    129 H         -17.0438   20.4326   16.7943 H         1 LEU         0.0232
    130 H         -14.1679   19.4583   16.2091 H         1 LEU         0.0232
    131 H         -14.5338   17.7344   16.4652 H         1 LEU         0.0232
    132 H         -15.6871   18.7684   15.5867 H         1 LEU         0.0232
    133 H         -17.7506   19.1708   20.6673 H         1 ASP         0.1884
    134 H         -17.8190   16.6145   22.0911 H         1 ASP         0.0819
    135 H         -20.1618   18.3722   21.3227 H         1 ASP         0.0478
    136 H         -19.0542   18.7492   22.7126 H         1 ASP         0.0478
    137 H         -17.0663   15.3932   20.1814 H         1 LEU         0.1883
    138 H         -19.0337   15.0646   18.0455 H         1 LEU         0.0800
    139 H         -17.5329   13.4254   17.1437 H         1 LEU         0.0315
    140 H         -16.5187   13.5488   18.7181 H         1 LEU         0.0315
    141 H         -16.0429   15.8728   18.0019 H         1 LEU         0.0298
    142 H         -14.4314   14.0313   17.8188 H         1 LEU         0.0232
    143 H         -15.1008   13.5946   16.2275 H         1 LEU         0.0232
    144 H         -14.2715   15.1551   16.4468 H         1 LEU         0.0232
    145 H         -17.1272   14.8664   15.3590 H         1 LEU         0.0232
    146 H         -17.8389   16.1443   16.3746 H         1 LEU         0.0232
    147 H         -16.2467   16.3926   15.6168 H         1 LEU         0.0232
    148 H         -20.9878   11.4139   19.8628 H         1 PRO         0.0728
    149 O         -20.0881    9.9215   17.1668 O.co2     1 PRO        -0.5666
    150 H         -22.9195   12.0570   18.5266 H         1 PRO         0.0306
    151 H         -22.4346   10.6685   17.6360 H         1 PRO         0.0306
    152 H         -22.5722   12.9945   16.3542 H         1 PRO         0.0286
    153 H         -21.2360   11.9472   16.0045 H         1 PRO         0.0286
    154 H         -20.0263   13.8924   16.6445 H         1 PRO         0.0524
    155 H         -21.2571   14.4545   17.6862 H         1 PRO         0.0524
@<TRIPOS>BOND
     1    1    2 1  
     2    2    3 1  
     3    2    5 1  
     4    3    4 2  
     5    3    8 am 
     6    5    6 1  
     7    5    7 1  
     8    8    9 1  
     9    9   10 1  
    10    9   12 1  
    11   10   11 2  
    12   10   15 am 
    13   12   13 1  
    14   12   14 1  
    15   15   16 1  
    16   16   17 1  
    17   16   19 1  
    18   17   18 2  
    19   17   26 am 
    20   19   20 1  
    21   20   21 1  
    22   21   22 1  
    23   22   23 ar 
    24   23   24 ar 
    25   23   25 ar 
    26   26   27 1  
    27   26   32 1  
    28   27   28 1  
    29   27   30 1  
    30   28   29 2  
    31   28   33 am 
    32   30   31 1  
    33   31   32 1  
    34   33   34 1  
    35   34   35 1  
    36   35   36 2  
    37   35   37 am 
    38   37   38 1  
    39   38   39 1  
    40   38   41 1  
    41   39   40 2  
    42   39   43 am 
    43   41   42 1  
    44   43   44 1  
    45   44   45 1  
    46   44   47 1  
    47   45   46 2  
    48   45   51 am 
    49   47   48 1  
    50   48   49 1  
    51   48   50 1  
    52   51   52 1  
    53   52   53 1  
    54   52   55 1  
    55   53   54 2  
    56   53   59 am 
    57   55   56 1  
    58   56   57 ar 
    59   56   58 ar 
    60   59   60 1  
    61   60   61 1  
    62   60   63 1  
    63   61   62 2  
    64   61   67 am 
    65   63   64 1  
    66   64   65 1  
    67   64   66 1  
    68   67   68 1  
    69   67   73 1  
    70   68   69 1  
    71   68   71 1  
    72   69   70 ar 
    73   71   72 1  
    74   72   73 1  
    75    1   74 1  
    76    1   75 1  
    77    1   76 1  
    78    2   77 1  
    79    5   78 1  
    80    6   79 1  
    81    6   80 1  
    82    6   81 1  
    83    7   82 1  
    84    7   83 1  
    85    7   84 1  
    86    8   85 1  
    87    9   86 1  
    88   12   87 1  
    89   13   88 1  
    90   13   89 1  
    91   13   90 1  
    92   14   91 1  
    93   14   92 1  
    94   14   93 1  
    95   15   94 1  
    96   16   95 1  
    97   19   96 1  
    98   19   97 1  
    99   20   98 1  
   100   20   99 1  
   101   21  100 1  
   102   21  101 1  
   103   22  102 1  
   104   24  103 1  
   105   24  104 1  
   106   25  105 1  
   107   25  106 1  
   108   27  107 1  
   109   30  108 1  
   110   30  109 1  
   111   31  110 1  
   112   31  111 1  
   113   32  112 1  
   114   32  113 1  
   115   33  114 1  
   116   34  115 1  
   117   34  116 1  
   118   37  117 1  
   119   38  118 1  
   120   41  119 1  
   121   41  120 1  
   122   42  121 1  
   123   43  122 1  
   124   44  123 1  
   125   47  124 1  
   126   47  125 1  
   127   48  126 1  
   128   49  127 1  
   129   49  128 1  
   130   49  129 1  
   131   50  130 1  
   132   50  131 1  
   133   50  132 1  
   134   51  133 1  
   135   52  134 1  
   136   55  135 1  
   137   55  136 1  
   138   59  137 1  
   139   60  138 1  
   140   63  139 1  
   141   63  140 1  
   142   64  141 1  
   143   65  142 1  
   144   65  143 1  
   145   65  144 1  
   146   66  145 1  
   147   66  146 1  
   148   66  147 1  
   149   68  148 1  
   150   69  149 ar 
   151   71  150 1  
   152   71  151 1  
   153   72  152 1  
   154   72  153 1  
   155   73  154 1  
   156   73  155 1  
@<TRIPOS>SUBSTRUCTURE
     1 VAL         1

