4h3b_ligand
  -I-interpret- 

156157  0  0  0  0  0  0  0  0999 V2000
   -6.5020   34.9130   22.9400 N   0  3  0  0  0
   -7.6290   34.1380   23.4510 C   0  0  0  0  0
   -7.2440   32.6650   23.4970 C   0  0  0  0  0
   -6.2780   32.2520   22.8520 O   0  0  0  0  0
   -8.8890   34.3200   22.5660 C   0  0  0  0  0
  -10.1530   33.8930   23.3120 C   0  0  0  0  0
   -9.0160   35.7650   22.1120 C   0  0  0  0  0
   -7.9860   31.8760   24.2690 N   0  0  0  0  0
   -7.7550   30.4390   24.3080 C   0  0  0  0  0
   -8.4840   29.7490   23.1540 C   0  0  0  0  0
   -9.6400   30.0600   22.8440 O   0  0  0  0  0
   -8.1300   29.8090   25.6860 C   0  0  0  0  0
   -9.6460   29.6050   25.8240 C   0  0  0  0  0
   -7.3960   28.4970   25.8840 C   0  0  0  0  0
   -7.7850   28.8350   22.4930 N   0  0  0  0  0
   -8.3950   28.0560   21.4290 C   0  0  0  0  0
   -9.2020   26.9460   22.0580 C   0  0  0  0  0
   -8.7980   26.3820   23.0690 O   0  0  0  0  0
   -7.3300   27.4950   20.4890 C   0  0  0  0  0
   -6.6800   28.5790   19.6570 C   0  0  0  0  0
   -5.3150   28.1800   19.1560 C   0  0  0  0  0
   -4.8160   29.1570   18.1960 N   0  0  0  0  0
   -3.9480   28.8670   17.2370 C   0  0  0  0  0
   -3.4790   27.6310   17.1330 N   0  0  0  0  0
   -3.5470   29.8090   16.3890 N   0  0  0  0  0
  -10.3680   26.6510   21.4770 N   0  0  0  0  0
  -11.1800   25.5570   21.9990 C   0  0  0  0  0
  -10.3290   24.3030   21.9850 C   0  0  0  0  0
   -9.5620   24.0980   21.0380 O   0  0  0  0  0
  -12.3170   25.4480   20.9800 C   0  0  0  0  0
  -12.3900   26.8060   20.3410 C   0  0  0  0  0
  -10.9850   27.3110   20.3130 C   0  0  0  0  0
  -10.4310   23.4990   23.0330 N   0  0  0  0  0
   -9.5840   22.3300   23.1570 C   0  0  0  0  0
  -10.4320   21.0890   23.1750 C   0  0  0  0  0
   -9.9340   19.9960   23.4400 O   0  0  0  0  0
  -11.7240   21.2570   22.8960 N   0  0  0  0  0
  -12.6350   20.1110   22.8480 C   0  0  0  0  0
  -13.7150   20.2620   21.7860 C   0  0  0  0  0
  -14.1060   21.3740   21.4330 O   0  0  0  0  0
  -13.2930   19.8870   24.2110 C   0  0  0  0  0
  -13.9190   21.0780   24.6500 O   0  0  0  0  0
  -14.2100   19.1290   21.3040 N   0  0  0  0  0
  -15.2600   19.1110   20.2970 C   0  0  0  0  0
  -16.1630   17.9190   20.5570 C   0  0  0  0  0
  -15.7360   16.7580   20.5050 O   0  0  0  0  0
  -14.6620   19.0410   18.8860 C   0  0  0  0  0
  -15.6580   19.0790   17.7190 C   0  0  0  0  0
  -16.3440   20.4350   17.6300 C   0  0  0  0  0
  -14.9610   18.7350   16.3990 C   0  0  0  0  0
  -17.4220   18.2200   20.8360 N   0  0  0  0  0
  -18.3520   17.2400   21.3750 C   0  0  0  0  0
  -18.8840   16.2950   20.2990 C   0  0  0  0  0
  -20.0590   16.3470   19.9300 O   0  0  0  0  0
  -19.4950   17.9730   22.0870 C   0  0  0  0  0
  -20.3100   17.0640   22.9830 C   0  0  0  0  0
  -21.4430   17.4600   23.3420 O   0  0  0  0  0
  -19.8240   15.9610   23.3250 O   0  0  0  0  0
  -18.0130   15.4250   19.8030 N   0  0  0  0  0
  -18.3850   14.5130   18.7260 C   0  0  0  0  0
  -19.1370   13.3060   19.2670 C   0  0  0  0  0
  -18.8280   12.8190   20.3540 O   0  0  0  0  0
  -17.1430   14.0280   17.9640 C   0  0  0  0  0
  -16.2350   15.0630   17.2980 C   0  0  0  0  0
  -14.9160   14.4150   16.9210 C   0  0  0  0  0
  -16.9100   15.6590   16.0750 C   0  0  0  0  0
  -20.1280   12.8210   18.5020 N   0  0  0  0  0
  -20.8090   11.5560   18.7970 C   0  0  0  0  0
  -19.9770   10.3620   18.3420 C   0  0  0  0  0
  -19.1775    9.8194   19.1507 O   0  0  0  0  0
  -22.0830   11.6480   17.9600 C   0  0  0  0  0
  -21.7000   12.5220   16.8060 C   0  0  0  0  0
  -20.7540   13.5390   17.3750 C   0  0  0  0  0
  -20.0881    9.9215   17.1668 O   0  0  0  0  0
   -5.6919   34.7712   23.5434 H   0  0  0  0  0
   -6.2804   34.6048   21.9933 H   0  0  0  0  0
   -6.7492   35.9025   22.9276 H   0  0  0  0  0
   -7.8673   34.4966   24.4524 H   0  0  0  0  0
   -8.7763   33.6815   21.6898 H   0  0  0  0  0
  -10.2923   34.5324   24.1837 H   0  0  0  0  0
  -11.0135   33.9870   22.6496 H   0  0  0  0  0
  -10.0513   32.8562   23.6328 H   0  0  0  0  0
   -9.8749   35.8617   21.4479 H   0  0  0  0  0
   -9.1537   36.4071   22.9820 H   0  0  0  0  0
   -8.1102   36.0588   21.5817 H   0  0  0  0  0
   -8.7262   32.2828   24.8409 H   0  0  0  0  0
   -6.6842   30.2773   24.1838 H   0  0  0  0  0
   -7.8214   30.5072   26.4640 H   0  0  0  0  0
  -10.1502   30.5675   25.7377 H   0  0  0  0  0
   -9.9949   28.9386   25.0352 H   0  0  0  0  0
   -9.8650   29.1646   26.7967 H   0  0  0  0  0
   -7.6720   27.8042   25.0891 H   0  0  0  0  0
   -6.3211   28.6755   25.8551 H   0  0  0  0  0
   -7.6691   28.0715   26.8496 H   0  0  0  0  0
   -6.8068   28.6773   22.7350 H   0  0  0  0  0
   -9.0483   28.6912   20.8308 H   0  0  0  0  0
   -7.8107   26.7884   19.8125 H   0  0  0  0  0
   -6.5574   27.0204   21.0940 H   0  0  0  0  0
   -6.5633   29.4617   20.2857 H   0  0  0  0  0
   -7.3153   28.7656   18.7912 H   0  0  0  0  0
   -5.3880   27.2088   18.6665 H   0  0  0  0  0
   -4.6283   28.1322   20.0011 H   0  0  0  0  0
   -5.1535   30.1170   18.2661 H   0  0  0  0  0
   -3.7864   26.9121   17.7880 H   0  0  0  0  0
   -2.8761   29.5823   15.6549 H   0  0  0  0  0
   -3.9102   30.7585   16.4725 H   0  0  0  0  0
  -11.5489   25.7033   23.0142 H   0  0  0  0  0
  -13.2596   25.1698   21.4514 H   0  0  0  0  0
  -12.1311   24.6635   20.2465 H   0  0  0  0  0
  -13.0435   27.4755   20.9002 H   0  0  0  0  0
  -12.8150   26.7530   19.3387 H   0  0  0  0  0
  -10.4735   27.0807   19.3784 H   0  0  0  0  0
  -10.9274   28.3982   20.3661 H   0  0  0  0  0
  -11.1143   23.7055   23.7616 H   0  0  0  0  0
   -9.0157   22.3926   24.0850 H   0  0  0  0  0
   -8.9002   22.2879   22.3092 H   0  0  0  0  0
  -12.0828   22.1943   22.7138 H   0  0  0  0  0
  -12.0264   19.2466   22.5824 H   0  0  0  0  0
  -12.5301   19.5965   24.9333 H   0  0  0  0  0
  -14.0426   19.1007   24.1216 H   0  0  0  0  0
  -14.3283   20.9266   25.5051 H   0  0  0  0  0
  -13.8427   18.2427   21.6504 H   0  0  0  0  0
  -15.8407   20.0312   20.3603 H   0  0  0  0  0
  -14.1553   18.0782   18.8198 H   0  0  0  0  0
  -14.0364   19.9271   18.7785 H   0  0  0  0  0
  -16.4242   18.3267   17.9064 H   0  0  0  0  0
  -16.8836   20.6293   18.5569 H   0  0  0  0  0
  -15.5940   21.2107   17.4752 H   0  0  0  0  0
  -17.0438   20.4326   16.7943 H   0  0  0  0  0
  -14.1679   19.4583   16.2091 H   0  0  0  0  0
  -14.5338   17.7344   16.4652 H   0  0  0  0  0
  -15.6871   18.7684   15.5867 H   0  0  0  0  0
  -17.7506   19.1708   20.6673 H   0  0  0  0  0
  -17.8190   16.6145   22.0911 H   0  0  0  0  0
  -20.1618   18.3722   21.3227 H   0  0  0  0  0
  -19.0542   18.7492   22.7126 H   0  0  0  0  0
  -18.9509   15.8635   22.9380 H   0  0  0  0  0
  -17.0663   15.3932   20.1814 H   0  0  0  0  0
  -19.0337   15.0646   18.0455 H   0  0  0  0  0
  -17.5329   13.4254   17.1437 H   0  0  0  0  0
  -16.5187   13.5488   18.7181 H   0  0  0  0  0
  -16.0429   15.8728   18.0019 H   0  0  0  0  0
  -14.4314   14.0313   17.8188 H   0  0  0  0  0
  -15.1008   13.5946   16.2275 H   0  0  0  0  0
  -14.2715   15.1551   16.4468 H   0  0  0  0  0
  -17.1272   14.8664   15.3590 H   0  0  0  0  0
  -17.8389   16.1443   16.3746 H   0  0  0  0  0
  -16.2467   16.3926   15.6168 H   0  0  0  0  0
  -20.9878   11.4139   19.8628 H   0  0  0  0  0
  -19.2180   10.2762   19.9941 H   0  0  0  0  0
  -22.9195   12.0570   18.5266 H   0  0  0  0  0
  -22.4346   10.6685   17.6360 H   0  0  0  0  0
  -22.5722   12.9945   16.3542 H   0  0  0  0  0
  -21.2360   11.9472   16.0045 H   0  0  0  0  0
  -20.0263   13.8924   16.6445 H   0  0  0  0  0
  -21.2571   14.4545   17.6862 H   0  0  0  0  0
  1  2  1  0  0  0
  2  3  1  0  0  0
  2  5  1  0  0  0
  3  4  2  0  0  0
  3  8  1  0  0  0
  5  6  1  0  0  0
  5  7  1  0  0  0
  8  9  1  0  0  0
  9 10  1  0  0  0
  9 12  1  0  0  0
 10 11  2  0  0  0
 10 15  1  0  0  0
 12 13  1  0  0  0
 12 14  1  0  0  0
 15 16  1  0  0  0
 16 17  1  0  0  0
 16 19  1  0  0  0
 17 18  2  0  0  0
 17 26  1  0  0  0
 19 20  1  0  0  0
 20 21  1  0  0  0
 21 22  1  0  0  0
 22 23  1  0  0  0
 23 24  2  0  0  0
 23 25  1  0  0  0
 26 27  1  0  0  0
 26 32  1  0  0  0
 27 28  1  0  0  0
 27 30  1  0  0  0
 28 29  2  0  0  0
 28 33  1  0  0  0
 30 31  1  0  0  0
 31 32  1  0  0  0
 33 34  1  0  0  0
 34 35  1  0  0  0
 35 36  2  0  0  0
 35 37  1  0  0  0
 37 38  1  0  0  0
 38 39  1  0  0  0
 38 41  1  0  0  0
 39 40  2  0  0  0
 39 43  1  0  0  0
 41 42  1  0  0  0
 43 44  1  0  0  0
 44 45  1  0  0  0
 44 47  1  0  0  0
 45 46  2  0  0  0
 45 51  1  0  0  0
 47 48  1  0  0  0
 48 49  1  0  0  0
 48 50  1  0  0  0
 51 52  1  0  0  0
 52 53  1  0  0  0
 52 55  1  0  0  0
 53 54  2  0  0  0
 53 59  1  0  0  0
 55 56  1  0  0  0
 56 57  2  0  0  0
 56 58  1  0  0  0
 59 60  1  0  0  0
 60 61  1  0  0  0
 60 63  1  0  0  0
 61 62  2  0  0  0
 61 67  1  0  0  0
 63 64  1  0  0  0
 64 65  1  0  0  0
 64 66  1  0  0  0
 67 68  1  0  0  0
 67 73  1  0  0  0
 68 69  1  0  0  0
 68 71  1  0  0  0
 69 70  1  0  0  0
 71 72  1  0  0  0
 72 73  1  0  0  0
 69 74  2  0  0  0
  1 75  1  0  0  0
  1 76  1  0  0  0
  1 77  1  0  0  0
  2 78  1  0  0  0
  5 79  1  0  0  0
  6 80  1  0  0  0
  6 81  1  0  0  0
  6 82  1  0  0  0
  7 83  1  0  0  0
  7 84  1  0  0  0
  7 85  1  0  0  0
  8 86  1  0  0  0
  9 87  1  0  0  0
 12 88  1  0  0  0
 13 89  1  0  0  0
 13 90  1  0  0  0
 13 91  1  0  0  0
 14 92  1  0  0  0
 14 93  1  0  0  0
 14 94  1  0  0  0
 15 95  1  0  0  0
 16 96  1  0  0  0
 19 97  1  0  0  0
 19 98  1  0  0  0
 20 99  1  0  0  0
 20100  1  0  0  0
 21101  1  0  0  0
 21102  1  0  0  0
 22103  1  0  0  0
 24104  1  0  0  0
 25105  1  0  0  0
 25106  1  0  0  0
 27107  1  0  0  0
 30108  1  0  0  0
 30109  1  0  0  0
 31110  1  0  0  0
 31111  1  0  0  0
 32112  1  0  0  0
 32113  1  0  0  0
 33114  1  0  0  0
 34115  1  0  0  0
 34116  1  0  0  0
 37117  1  0  0  0
 38118  1  0  0  0
 41119  1  0  0  0
 41120  1  0  0  0
 42121  1  0  0  0
 43122  1  0  0  0
 44123  1  0  0  0
 47124  1  0  0  0
 47125  1  0  0  0
 48126  1  0  0  0
 49127  1  0  0  0
 49128  1  0  0  0
 49129  1  0  0  0
 50130  1  0  0  0
 50131  1  0  0  0
 50132  1  0  0  0
 51133  1  0  0  0
 52134  1  0  0  0
 55135  1  0  0  0
 55136  1  0  0  0
 58137  1  0  0  0
 59138  1  0  0  0
 60139  1  0  0  0
 63140  1  0  0  0
 63141  1  0  0  0
 64142  1  0  0  0
 65143  1  0  0  0
 65144  1  0  0  0
 65145  1  0  0  0
 66146  1  0  0  0
 66147  1  0  0  0
 66148  1  0  0  0
 68149  1  0  0  0
 70150  1  0  0  0
 71151  1  0  0  0
 71152  1  0  0  0
 72153  1  0  0  0
 72154  1  0  0  0
 73155  1  0  0  0
 73156  1  0  0  0
M  END
$$$$
