3udy_ligand
  -I-interpret- 

 44 47  0  0  0  0  0  0  0  0999 V2000
   16.6720   41.8470   44.8480 C   0  0  0  0  0
   26.2630   37.4590   40.0800 C   0  0  0  0  0
   26.9080   37.6060   41.2970 C   0  0  0  0  0
   17.3060   39.5440   45.3080 C   0  0  0  0  0
   24.9570   37.0200   40.0250 C   0  0  0  0  0
   17.6800   38.3010   44.8400 C   0  0  0  0  0
   26.2750   37.2990   42.4820 C   0  0  0  0  0
   17.3900   39.0300   42.6020 C   0  0  0  0  0
   16.9620   40.5310   44.4130 C   0  0  0  0  0
   24.3290   36.7320   41.2160 C   0  0  0  0  0
   17.7100   38.0370   43.4900 C   0  0  0  0  0
   24.9740   36.8680   42.4090 C   0  0  0  0  0
   17.0210   40.2650   43.0690 C   0  0  0  0  0
   22.9380   36.0550   42.9320 C   0  0  0  0  0
   19.7990   36.0520   41.4060 C   0  0  0  0  0
   21.9020   37.2820   41.1000 C   0  0  0  0  0
   22.6180   34.9930   40.6820 C   0  0  0  0  0
   20.8200   36.5010   40.4060 C   0  0  0  0  0
   22.9520   36.2580   41.4390 C   0  0  0  0  0
   18.1650   36.7360   42.9210 C   0  0  0  0  0
   16.4020   42.9270   45.1840 N   0  0  0  0  0
   24.1440   36.4910   43.4520 N   0  0  0  0  0
   21.4370   35.2820   39.8790 N   0  3  0  0  0
   21.9670   35.6240   43.5380 O   0  0  0  0  0
   19.5610   34.8800   41.6450 O   0  0  0  0  0
   19.1380   37.1120   41.9390 O   0  0  0  0  0
   16.6260   41.6010   41.7980 Br  0  0  0  0  0
   26.7931   37.6927   39.1567 H   0  0  0  0  0
   27.9348   37.9711   41.3178 H   0  0  0  0  0
   17.2832   39.7428   46.3795 H   0  0  0  0  0
   24.4400   36.9050   39.0723 H   0  0  0  0  0
   17.9549   37.5192   45.5480 H   0  0  0  0  0
   26.7873   37.3947   43.4393 H   0  0  0  0  0
   17.4286   38.8391   41.5295 H   0  0  0  0  0
   21.5299   37.7932   41.9878 H   0  0  0  0  0
   22.2979   38.0782   40.4696 H   0  0  0  0  0
   22.4269   34.1691   41.3695 H   0  0  0  0  0
   23.4517   34.6885   40.0493 H   0  0  0  0  0
   20.3589   37.1166   39.6336 H   0  0  0  0  0
   17.3439   36.1617   42.4920 H   0  0  0  0  0
   18.5784   36.0732   43.6812 H   0  0  0  0  0
   24.3831   36.5287   44.4429 H   0  0  0  0  0
   20.7788   34.5043   39.9270 H   0  0  0  0  0
   21.6983   35.4129   38.9018 H   0  0  0  0  0
  9  1  1  0  0  0
  1 21  3  0  0  0
  2  3  4  0  0  0
  5  2  4  0  0  0
  7  3  4  0  0  0
  6  4  4  0  0  0
  4  9  4  0  0  0
 10  5  4  0  0  0
 11  6  4  0  0  0
 12  7  4  0  0  0
 11  8  4  0  0  0
  8 13  4  0  0  0
 13  9  4  0  0  0
 10 12  4  0  0  0
 19 10  1  0  0  0
 20 11  1  0  0  0
 22 12  1  0  0  0
 13 27  1  0  0  0
 19 14  1  0  0  0
 14 22  1  0  0  0
 14 24  2  0  0  0
 15 18  1  0  0  0
 15 25  2  0  0  0
 26 15  1  0  0  0
 18 16  1  0  0  0
 16 19  1  0  0  0
 17 19  1  0  0  0
 23 17  1  0  0  0
 18 23  1  0  0  0
 20 26  1  0  0  0
  2 28  1  0  0  0
  3 29  1  0  0  0
  4 30  1  0  0  0
  5 31  1  0  0  0
  6 32  1  0  0  0
  7 33  1  0  0  0
  8 34  1  0  0  0
 16 35  1  0  0  0
 16 36  1  0  0  0
 17 37  1  0  0  0
 17 38  1  0  0  0
 18 39  1  0  0  0
 20 40  1  0  0  0
 20 41  1  0  0  0
 22 42  1  0  0  0
 23 43  1  0  0  0
 23 44  1  0  0  0
M  END
$$$$
