6hgi_ligand
  -I-interpret- 

 55 58  0  0  0  0  0  0  0  0999 V2000
    4.7060   21.4750   -8.7900 C   0  0  0  0  0
    4.6810   21.1390  -10.2610 C   0  0  0  0  0
    3.5220   20.2380  -10.5580 C   0  0  0  0  0
    2.2660   20.5810   -9.9000 C   0  0  0  0  0
    2.1950   21.5480   -8.9840 C   0  0  0  0  0
    0.8600   21.9520   -8.4470 C   0  0  0  0  0
    0.6700   21.5710   -6.9990 C   0  0  0  0  0
    1.8220   22.0890   -6.1960 C   0  0  0  0  0
    3.1520   21.5730   -6.8100 C   0  0  0  0  0
    3.3620   22.0520   -8.2620 C   0  0  0  0  0
    4.4180   21.7850   -5.9150 C   0  0  0  0  0
    4.1720   21.3820   -4.4520 C   0  0  0  0  0
    2.8530   21.9440   -3.9090 C   0  0  0  0  0
    1.7160   21.4990   -4.8260 C   0  0  0  0  0
    0.4570   21.8370   -4.0320 C   0  0  0  0  0
    0.8700   21.6550   -2.5720 C   0  0  0  0  0
    2.3630   21.2740   -2.5920 C   0  0  0  0  0
    2.8890   23.4780   -3.7420 C   0  0  0  0  0
    3.3160   23.5820   -8.4360 C   0  0  0  0  0
    3.0340   21.7330   -1.3170 C   0  0  0  0  0
    4.2270   20.9270   -0.8390 C   0  0  0  0  0
    3.6090   19.2970  -11.3240 O   0  0  0  0  0
    4.8910   23.0980   -6.0080 O   0  0  0  0  0
    2.6830   22.6680   -0.6290 O   0  0  0  0  0
    4.3590   21.2930    0.5140 O   0  0  0  0  0
    5.4706   22.2375   -8.6413 H   0  0  0  0  0
    4.9016   20.5507   -8.2463 H   0  0  0  0  0
    5.6081   20.6330  -10.5302 H   0  0  0  0  0
    4.5793   22.0580  -10.8382 H   0  0  0  0  0
    1.3617   20.0326  -10.1638 H   0  0  0  0  0
    0.0967   21.4366   -9.0299 H   0  0  0  0  0
    0.7869   23.0372   -8.5182 H   0  0  0  0  0
    0.6222   20.4856   -6.9105 H   0  0  0  0  0
   -0.2584   22.0040   -6.6266 H   0  0  0  0  0
    1.8060   23.1788   -6.1801 H   0  0  0  0  0
    3.0285   20.4906   -6.8468 H   0  0  0  0  0
    5.1922   21.1210   -6.2994 H   0  0  0  0  0
    4.9856   21.7845   -3.8485 H   0  0  0  0  0
    4.1218   20.2942   -4.4042 H   0  0  0  0  0
    1.7270   20.4357   -5.0657 H   0  0  0  0  0
   -0.3829   21.1974   -4.3033 H   0  0  0  0  0
    0.1032   22.8478   -4.2351 H   0  0  0  0  0
    0.2735   20.8815   -2.0883 H   0  0  0  0  0
    0.7051   22.5682   -2.0002 H   0  0  0  0  0
    2.5915   20.2083   -2.6030 H   0  0  0  0  0
    3.6821   23.7478   -3.0446 H   0  0  0  0  0
    3.0801   23.9431   -4.7091 H   0  0  0  0  0
    1.9302   23.8226   -3.3548 H   0  0  0  0  0
    2.3435   23.9540   -8.1137 H   0  0  0  0  0
    4.0997   24.0388   -7.8317 H   0  0  0  0  0
    3.4724   23.8319   -9.4854 H   0  0  0  0  0
    5.1278   21.1372   -1.4156 H   0  0  0  0  0
    4.0812   19.8543   -0.9665 H   0  0  0  0  0
    5.6658   23.1981   -5.4500 H   0  0  0  0  0
    5.1013   20.8227    0.9006 H   0  0  0  0  0
  1  2  1  0  0  0
  1 10  1  0  0  0
  2  3  1  0  0  0
  3  4  1  0  0  0
  3 22  2  0  0  0
  4  5  2  0  0  0
  5  6  1  0  0  0
  5 10  1  0  0  0
  6  7  1  0  0  0
  7  8  1  0  0  0
  8  9  1  0  0  0
  8 14  1  0  0  0
  9 10  1  0  0  0
  9 11  1  0  0  0
 10 19  1  0  0  0
 11 12  1  0  0  0
 11 23  1  0  0  0
 12 13  1  0  0  0
 13 14  1  0  0  0
 13 17  1  0  0  0
 13 18  1  0  0  0
 14 15  1  0  0  0
 15 16  1  0  0  0
 16 17  1  0  0  0
 17 20  1  0  0  0
 20 21  1  0  0  0
 20 24  2  0  0  0
 21 25  1  0  0  0
  1 26  1  0  0  0
  1 27  1  0  0  0
  2 28  1  0  0  0
  2 29  1  0  0  0
  4 30  1  0  0  0
  6 31  1  0  0  0
  6 32  1  0  0  0
  7 33  1  0  0  0
  7 34  1  0  0  0
  8 35  1  0  0  0
  9 36  1  0  0  0
 11 37  1  0  0  0
 12 38  1  0  0  0
 12 39  1  0  0  0
 14 40  1  0  0  0
 15 41  1  0  0  0
 15 42  1  0  0  0
 16 43  1  0  0  0
 16 44  1  0  0  0
 17 45  1  0  0  0
 18 46  1  0  0  0
 18 47  1  0  0  0
 18 48  1  0  0  0
 19 49  1  0  0  0
 19 50  1  0  0  0
 19 51  1  0  0  0
 21 52  1  0  0  0
 21 53  1  0  0  0
 23 54  1  0  0  0
 25 55  1  0  0  0
M  END
$$$$
