2i19_ligand
  -I-interpret- 

 29 29  0  0  0  0  0  0  0  0999 V2000
   14.8860   41.0290   45.4800 C   0  0  0  0  0
   15.2430   42.1030   46.4130 C   0  0  0  0  0
   14.1020   41.3210   44.4440 C   0  0  0  0  0
   13.6100   42.6960   44.2740 C   0  0  0  0  0
   13.8980   43.6020   45.1240 N   0  0  0  0  0
   14.7620   43.3470   46.2640 C   0  0  0  0  0
   15.1100   44.2570   47.1470 N   0  0  0  0  0
   15.9890   43.9320   48.2730 C   0  0  0  0  0
   16.8540   45.1500   48.6600 C   0  0  0  0  0
   17.4050   45.0530   50.3980 P   0  0  0  0  0
   16.2630   44.5600   51.2210 O   0  0  0  0  0
   18.5520   44.1090   50.5110 O   0  0  0  0  0
   17.8140   46.4040   50.8660 O   0  0  0  0  0
   18.2930   45.4380   47.5670 P   0  0  0  0  0
   19.1630   44.2360   47.4770 O   0  0  0  0  0
   17.8000   45.7980   46.1990 O   0  0  0  0  0
   19.0930   46.5720   48.1380 O   0  0  0  0  0
   15.2543   40.0143   45.6313 H   0  0  0  0  0
   15.9131   41.8862   47.2449 H   0  0  0  0  0
   13.8272   40.5467   43.7277 H   0  0  0  0  0
   12.9918   42.9439   43.4112 H   0  0  0  0  0
   14.7604   45.2098   47.0458 H   0  0  0  0  0
   16.6456   43.1121   47.9819 H   0  0  0  0  0
   15.3755   43.6498   49.1286 H   0  0  0  0  0
   16.1936   46.0073   48.5301 H   0  0  0  0  0
   16.0027   43.6880   50.9153 H   0  0  0  0  0
   18.2806   43.2397   50.2073 H   0  0  0  0  0
   17.2381   46.5742   46.2566 H   0  0  0  0  0
   18.5390   47.3536   48.2000 H   0  0  0  0  0
  1  2  4  0  0  0
  1  3  4  0  0  0
  2  6  4  0  0  0
  3  4  4  0  0  0
  4  5  4  0  0  0
  5  6  4  0  0  0
  6  7  1  0  0  0
  7  8  1  0  0  0
  8  9  1  0  0  0
  9 10  1  0  0  0
  9 14  1  0  0  0
 10 11  1  0  0  0
 10 12  1  0  0  0
 10 13  2  0  0  0
 14 15  2  0  0  0
 14 16  1  0  0  0
 14 17  1  0  0  0
  1 18  1  0  0  0
  2 19  1  0  0  0
  3 20  1  0  0  0
  4 21  1  0  0  0
  7 22  1  0  0  0
  8 23  1  0  0  0
  8 24  1  0  0  0
  9 25  1  0  0  0
 11 26  1  0  0  0
 12 27  1  0  0  0
 16 28  1  0  0  0
 17 29  1  0  0  0
M  END
$$$$
