5nf5_ligand
  -I-interpret- 

 23 24  0  0  0  0  0  0  0  0999 V2000
   -0.2410  -33.3070  -17.9150 C   0  0  0  0  0
    1.1210  -31.3580  -17.6170 C   0  0  0  0  0
    2.4930  -33.1140  -19.0280 C   0  0  0  0  0
    1.4720  -32.0060  -18.9890 C   0  0  0  0  0
    0.2400  -32.8300  -19.2910 C   0  0  0  0  0
    3.8880  -32.9700  -18.4310 C   0  0  0  0  0
    0.6310  -29.9000  -17.8080 C   0  0  0  0  0
    0.7260  -33.9350  -20.0400 O   0  0  0  0  0
    4.4860  -34.0200  -18.1040 O   0  0  0  0  0
   -0.3540  -29.4700  -17.1670 O   0  0  0  0  0
    1.2500  -29.1690  -18.6070 O   0  0  0  0  0
    0.0340  -32.1700  -17.0290 N   0  3  0  0  0
    2.0580  -34.1590  -19.6060 N   0  0  0  0  0
    4.3740  -31.8280  -18.2990 O   0  0  0  0  0
    0.2675  -34.2152  -17.5916 H   0  0  0  0  0
   -1.2957  -33.5823  -17.9186 H   0  0  0  0  0
    1.9993  -31.3319  -16.9720 H   0  0  0  0  0
    1.8175  -31.1825  -19.6139 H   0  0  0  0  0
   -0.5564  -32.3160  -19.8291 H   0  0  0  0  0
    3.9271  -34.7773  -18.2931 H   0  0  0  0  0
   -0.6992  -30.1686  -16.6063 H   0  0  0  0  0
    0.3154  -32.5093  -16.1092 H   0  0  0  0  0
   -0.8061  -31.6005  -16.9274 H   0  0  0  0  0
  1  5  1  0  0  0
 12  1  1  0  0  0
  2  4  1  0  0  0
  2  7  1  0  0  0
  2 12  1  0  0  0
  4  3  1  0  0  0
  3  6  1  0  0  0
  3 13  2  0  0  0
  4  5  1  0  0  0
  5  8  1  0  0  0
  6  9  1  0  0  0
  6 14  2  0  0  0
  7 10  1  0  0  0
  7 11  2  0  0  0
  8 13  1  0  0  0
  1 15  1  0  0  0
  1 16  1  0  0  0
  2 17  1  0  0  0
  4 18  1  0  0  0
  5 19  1  0  0  0
  9 20  1  0  0  0
 10 21  1  0  0  0
 12 22  1  0  0  0
 12 23  1  0  0  0
M  END
$$$$
