5di1_ligand
  -I-interpret- 

 40 42  0  0  0  0  0  0  0  0999 V2000
   73.9640   50.5320   21.6570 C   0  0  0  0  0
   74.3020   51.4630   20.5380 C   0  0  0  0  0
   73.6160   48.2840   22.4620 C   0  0  0  0  0
   73.9950   49.1420   21.4480 C   0  0  0  0  0
   78.7750   52.4990   16.5200 C   0  0  0  0  0
   77.9210   50.2940   16.1500 C   0  0  0  0  0
   77.7250   52.7710   17.3750 C   0  0  0  0  0
   75.3630   51.1670   19.6480 C   0  0  0  0  0
   75.6400   52.0660   18.5990 C   0  0  0  0  0
   74.8050   53.2140   18.4510 C   0  0  0  0  0
   73.7980   53.4280   19.3020 N   0  0  0  0  0
   73.5310   52.6150   20.3160 C   0  0  0  0  0
   73.2280   48.7940   23.7090 C   0  0  0  0  0
   73.1770   50.1750   23.9200 C   0  0  0  0  0
   73.5050   51.0410   22.8900 C   0  0  0  0  0
   74.9790   54.0960   17.3890 N   0  0  0  0  0
   76.7720   51.7890   17.6490 C   0  0  0  0  0
   76.9000   50.5310   17.0550 C   0  0  0  0  0
   78.8540   51.2760   15.8710 C   0  0  0  0  0
   80.1610   50.9770   14.6870 S   0  0  0  0  0
   81.3370   50.9590   15.4710 O   0  0  0  0  0
   79.7540   49.8170   13.9740 O   0  0  0  0  0
   80.1580   52.4430   13.5890 C   0  0  0  0  0
   72.8950   47.9460   24.7140 O   0  0  0  0  0
   73.6186   47.2073   22.2922 H   0  0  0  0  0
   74.3178   48.7419   20.4868 H   0  0  0  0  0
   79.5468   53.2507   16.3542 H   0  0  0  0  0
   77.9898   49.3260   15.6537 H   0  0  0  0  0
   77.6405   53.7547   17.8367 H   0  0  0  0  0
   75.9547   50.2601   19.7722 H   0  0  0  0  0
   72.7021   52.8446   20.9855 H   0  0  0  0  0
   72.8801   50.5690   24.8920 H   0  0  0  0  0
   73.4083   52.1173   23.0323 H   0  0  0  0  0
   75.7125   53.9271   16.7007 H   0  0  0  0  0
   74.3730   54.9115   17.2988 H   0  0  0  0  0
   76.1965   49.7364   17.3038 H   0  0  0  0  0
   80.1989   53.3487   14.1941 H   0  0  0  0  0
   81.0263   52.4045   12.9313 H   0  0  0  0  0
   79.2470   52.4452   12.9905 H   0  0  0  0  0
   72.6556   48.4533   25.4931 H   0  0  0  0  0
  2  1  1  0  0  0
  1  4  4  0  0  0
  1 15  4  0  0  0
  8  2  4  0  0  0
  2 12  4  0  0  0
  4  3  4  0  0  0
  3 13  4  0  0  0
  7  5  4  0  0  0
  5 19  4  0  0  0
  6 18  4  0  0  0
 19  6  4  0  0  0
 17  7  4  0  0  0
  9  8  4  0  0  0
  9 10  4  0  0  0
  9 17  1  0  0  0
 10 11  4  0  0  0
 10 16  1  0  0  0
 11 12  4  0  0  0
 13 14  4  0  0  0
 13 24  1  0  0  0
 14 15  4  0  0  0
 17 18  4  0  0  0
 19 20  1  0  0  0
 20 21  2  0  0  0
 20 22  2  0  0  0
 20 23  1  0  0  0
  3 25  1  0  0  0
  4 26  1  0  0  0
  5 27  1  0  0  0
  6 28  1  0  0  0
  7 29  1  0  0  0
  8 30  1  0  0  0
 12 31  1  0  0  0
 14 32  1  0  0  0
 15 33  1  0  0  0
 16 34  1  0  0  0
 16 35  1  0  0  0
 18 36  1  0  0  0
 23 37  1  0  0  0
 23 38  1  0  0  0
 23 39  1  0  0  0
 24 40  1  0  0  0
M  END
$$$$
