6nrf_ligand
  -I-interpret- 

 59 64  0  0  0  0  0  0  0  0999 V2000
   23.1330  -11.6420    6.6690 N   0  0  0  0  0
   20.1040  -14.6360    9.4930 N   0  0  0  0  0
   28.8910   -2.6780   11.2140 C   0  0  0  0  0
   21.8010  -14.1860   10.8780 N   0  0  0  0  0
   21.8500  -13.1990    8.6890 N   0  0  0  0  0
   27.5900   -6.8970    7.2140 C   0  0  0  0  0
   26.4770   -7.8010    6.9420 C   0  0  0  0  0
   29.5740   -4.6610    7.1470 O   0  0  0  0  0
   27.0320   -4.2310   11.2090 C   0  0  0  0  0
   27.7840   -3.2370   11.8400 C   0  0  0  0  0
   25.2890   -7.8820    7.6740 C   0  0  0  0  0
   29.2670   -3.0890    9.9410 C   0  0  0  0  0
   28.5310   -4.0860    9.3010 C   0  0  0  0  0
   28.7590   -4.8560    8.0590 C   0  0  0  0  0
   27.7410   -5.9100    8.1010 C   0  0  0  0  0
   24.4420   -9.6130    6.2200 C   0  0  0  0  0
   24.2890   -8.7720    7.3190 C   0  0  0  0  0
   22.8580  -10.5140    4.7570 O   0  0  0  0  0
   23.4020  -10.6170    5.8340 C   0  0  0  0  0
   23.7770  -11.8780    7.9710 C   0  0  0  0  0
   22.7320  -12.0820    9.0500 C   0  0  0  0  0
   21.2500  -14.0040    9.6490 C   0  0  0  0  0
   20.9370  -14.9950   11.5900 C   0  0  0  0  0
   20.9630  -15.4890   12.8890 C   0  0  0  0  0
   19.9070  -16.2850   13.3100 C   0  0  0  0  0
   18.8490  -16.5750   12.4540 C   0  0  0  0  0
   18.8260  -16.0760   11.1550 C   0  0  0  0  0
   19.8840  -15.2760   10.7200 C   0  0  0  0  0
   21.1640  -12.9180    7.4210 C   0  0  0  0  0
   22.1800  -12.7010    6.3060 C   0  0  0  0  0
   25.6130   -9.5260    5.4760 C   0  0  0  0  0
   26.6130   -8.6380    5.8320 C   0  0  0  0  0
   26.9720   -5.7520    9.2380 O   0  0  0  0  0
   27.4490   -4.6690    9.9530 C   0  0  0  0  0
   25.7850   -4.7140   11.8860 C   0  0  0  0  0
   25.3300   -4.0950   12.8570 O   0  0  0  0  0
   25.1910   -5.7950   11.3870 N   0  0  0  0  0
   29.4701   -1.9097   11.7263 H   0  0  0  0  0
   28.4586   -7.0569    6.5752 H   0  0  0  0  0
   27.4988   -2.8961   12.8352 H   0  0  0  0  0
   25.1472   -7.2338    8.5388 H   0  0  0  0  0
   30.1277   -2.6372    9.4480 H   0  0  0  0  0
   23.3719   -8.8145    7.9066 H   0  0  0  0  0
   24.3865  -11.0114    8.2272 H   0  0  0  0  0
   24.3959  -12.7727    7.9033 H   0  0  0  0  0
   23.2294  -12.3078    9.9932 H   0  0  0  0  0
   22.1379  -11.1737    9.1506 H   0  0  0  0  0
   21.7908  -15.2573   13.5592 H   0  0  0  0  0
   19.9064  -16.6877   14.3229 H   0  0  0  0  0
   18.0283  -17.2006   12.8051 H   0  0  0  0  0
   17.9952  -16.3062   10.4880 H   0  0  0  0  0
   20.5624  -12.0162    7.5344 H   0  0  0  0  0
   20.5299  -13.7665    7.1641 H   0  0  0  0  0
   22.7292  -13.6286    6.1447 H   0  0  0  0  0
   21.6509  -12.4033    5.4007 H   0  0  0  0  0
   25.7451  -10.1644    4.6024 H   0  0  0  0  0
   27.5238   -8.5909    5.2350 H   0  0  0  0  0
   24.3282   -6.1421   11.8060 H   0  0  0  0  0
   25.5984   -6.2766   10.5855 H   0  0  0  0  0
  1 19  1  0  0  0
 20  1  1  0  0  0
  1 30  1  0  0  0
 22  2  4  0  0  0
  2 28  4  0  0  0
  3 10  4  0  0  0
 12  3  4  0  0  0
 22  4  4  0  0  0
  4 23  4  0  0  0
 21  5  1  0  0  0
  5 22  1  0  0  0
  5 29  1  0  0  0
  7  6  1  0  0  0
  6 15  2  0  0  0
 11  7  4  0  0  0
  7 32  4  0  0  0
 14  8  2  0  0  0
  9 10  4  0  0  0
 34  9  4  0  0  0
  9 35  1  0  0  0
 17 11  4  0  0  0
 13 12  4  0  0  0
 14 13  1  0  0  0
 13 34  4  0  0  0
 15 14  1  0  0  0
 15 33  1  0  0  0
 16 17  4  0  0  0
 19 16  1  0  0  0
 16 31  4  0  0  0
 19 18  2  0  0  0
 20 21  1  0  0  0
 23 24  4  0  0  0
 23 28  4  0  0  0
 24 25  4  0  0  0
 25 26  4  0  0  0
 26 27  4  0  0  0
 27 28  4  0  0  0
 29 30  1  0  0  0
 31 32  4  0  0  0
 33 34  1  0  0  0
 35 36  2  0  0  0
 35 37  1  0  0  0
  3 38  1  0  0  0
  6 39  1  0  0  0
 10 40  1  0  0  0
 11 41  1  0  0  0
 12 42  1  0  0  0
 17 43  1  0  0  0
 20 44  1  0  0  0
 20 45  1  0  0  0
 21 46  1  0  0  0
 21 47  1  0  0  0
 24 48  1  0  0  0
 25 49  1  0  0  0
 26 50  1  0  0  0
 27 51  1  0  0  0
 29 52  1  0  0  0
 29 53  1  0  0  0
 30 54  1  0  0  0
 30 55  1  0  0  0
 31 56  1  0  0  0
 32 57  1  0  0  0
 37 58  1  0  0  0
 37 59  1  0  0  0
M  END
$$$$
