5fnr_ligand
  -I-interpret- 

 36 38  0  0  0  0  0  0  0  0999 V2000
   11.0030   62.6490   24.2040 C   0  0  0  0  0
   12.1540   62.2250   24.9900 N   0  0  0  0  0
   12.1850   60.9860   25.5490 N   0  0  0  0  0
   13.3330   60.8750   26.1960 N   0  0  0  0  0
   14.0480   62.0280   26.0640 C   0  0  0  0  0
   15.3140   62.4340   26.5460 C   0  0  0  0  0
   15.8120   63.7090   26.2460 C   0  0  0  0  0
   15.0330   64.5680   25.4630 C   0  0  0  0  0
   13.7850   64.1760   24.9850 C   0  0  0  0  0
   13.2930   62.9000   25.2880 C   0  0  0  0  0
   17.1830   64.0950   26.7910 C   0  0  0  0  0
   17.8270   65.3020   26.1100 C   0  0  0  0  0
   18.1150   65.0670   24.6330 C   0  0  0  0  0
   17.5830   65.8410   23.8120 O   0  0  0  0  0
   18.8630   64.1150   24.3240 O   0  0  0  0  0
   17.1390   64.2520   28.3030 C   0  0  0  0  0
   18.2630   63.9120   29.0500 C   0  0  0  0  0
   18.2610   64.0410   30.4280 C   0  0  0  0  0
   17.1380   64.5080   31.0650 C   0  0  0  0  0
   17.1400   64.6680   32.7980 Cl  0  0  0  0  0
   16.0100   64.8520   30.3510 C   0  0  0  0  0
   16.0100   64.7240   28.9710 C   0  0  0  0  0
   10.8766   61.9767   23.3554 H   0  0  0  0  0
   10.1091   62.6216   24.8271 H   0  0  0  0  0
   11.1651   63.6648   23.8435 H   0  0  0  0  0
   15.9062   61.7508   27.1548 H   0  0  0  0  0
   15.4098   65.5622   25.2227 H   0  0  0  0  0
   13.1929   64.8600   24.3770 H   0  0  0  0  0
   17.8416   63.2629   26.5423 H   0  0  0  0  0
   18.7773   65.4964   26.6072 H   0  0  0  0  0
   17.1299   66.1367   26.1841 H   0  0  0  0  0
   19.1506   63.6637   25.1210 H   0  0  0  0  0
   19.1542   63.5402   28.5445 H   0  0  0  0  0
   19.1464   63.7732   31.0046 H   0  0  0  0  0
   15.1246   65.2220   30.8680 H   0  0  0  0  0
   15.1198   64.9946   28.4032 H   0  0  0  0  0
  1  2  1  0  0  0
  2  3  4  0  0  0
  2 10  4  0  0  0
  3  4  4  0  0  0
  4  5  4  0  0  0
  5  6  4  0  0  0
  5 10  4  0  0  0
  6  7  4  0  0  0
  7  8  4  0  0  0
  7 11  1  0  0  0
  8  9  4  0  0  0
  9 10  4  0  0  0
 11 12  1  0  0  0
 11 16  1  0  0  0
 12 13  1  0  0  0
 13 14  2  0  0  0
 13 15  1  0  0  0
 16 17  4  0  0  0
 16 22  4  0  0  0
 17 18  4  0  0  0
 18 19  4  0  0  0
 19 20  1  0  0  0
 19 21  4  0  0  0
 21 22  4  0  0  0
  1 23  1  0  0  0
  1 24  1  0  0  0
  1 25  1  0  0  0
  6 26  1  0  0  0
  8 27  1  0  0  0
  9 28  1  0  0  0
 11 29  1  0  0  0
 12 30  1  0  0  0
 12 31  1  0  0  0
 15 32  1  0  0  0
 17 33  1  0  0  0
 18 34  1  0  0  0
 21 35  1  0  0  0
 22 36  1  0  0  0
M  END
$$$$
