### 
### Created by X-TOOL on Mon Sep 10 21:12:57 2018
### 

@<TRIPOS>MOLECULE
3d9k_ligand
  140   143     1     0     0
SMALL
GAST_HUCK


@<TRIPOS>ATOM
      1 N          15.5580    4.4890   -5.0850 N.4       1 TYR         0.2392
      2 CA         15.2660    5.8340   -5.6710 C.3       1 TYR         0.0730
      3 C          14.7210    5.7420   -7.0950 C.2       1 TYR         0.2286
      4 O          15.0710    4.8390   -7.8610 O.2       1 TYR        -0.3905
      5 CB         16.5070    6.7420   -5.6340 C.3       1 TYR         0.0365
      6 CG         16.2860    8.1410   -6.2070 C.ar      1 TYR        -0.0460
      7 CD1        15.6730    9.1430   -5.4540 C.ar      1 TYR        -0.0684
      8 CD2        16.6840    8.4520   -7.5060 C.ar      1 TYR        -0.0684
      9 CE1        15.4790   10.4150   -5.9750 C.ar      1 TYR        -0.0398
     10 CE2        16.4990    9.7230   -8.0410 C.ar      1 TYR        -0.0398
     11 CZ         15.8980   10.7040   -7.2720 C.ar      1 TYR         0.0805
     12 OH         15.7170   11.9690   -7.8070 O.3       1 TYR        -0.3376
     13 N          13.8570    6.6900   -7.4330 N.am      1 SEP        -0.2584
     14 CA         13.2920    6.7730   -8.7590 C.3       1 SEP         0.1589
     15 CB         11.8820    6.1820   -8.7850 C.3       1 SEP         0.1184
     16 OG         11.2400    6.4970  -10.0060 O.3       1 SEP        -0.2714
     17 C          13.2710    8.2280   -9.1590 C.2       1 SEP         0.2090
     18 O          12.7710    9.0630   -8.4020 O.2       1 SEP        -0.3941
     19 P          10.9540    5.1880  -10.9020 P.3       1 SEP         0.2010
     20 O1P        10.5000    5.6730  -12.3610 O.co2     1 SEP        -0.5537
     21 O2P        12.2940    4.2950  -11.0350 O.co2     1 SEP        -0.5537
     22 O3P         9.7610    4.3240  -10.2500 O.co2     1 SEP        -0.5537
     23 N          13.8380    8.5480  -10.3430 N.am      1 PRO        -0.2498
     24 CA         13.8720    9.9290  -10.8540 C.3       1 PRO         0.1338
     25 C          12.4900   10.5060  -11.2110 C.2       1 PRO         0.2042
     26 O          12.3930   11.6920  -11.5360 O.2       1 PRO        -0.3944
     27 CB         14.7650    9.8170  -12.0970 C.3       1 PRO        -0.0104
     28 CG         14.6350    8.3860  -12.5300 C.3       1 PRO        -0.0281
     29 CD         14.5060    7.6040  -11.2630 C.3       1 PRO         0.0369
     30 N          11.4430    9.6800  -11.1510 N.am      1 THR        -0.2613
     31 CA         10.0550   10.1560  -11.3160 C.3       1 THR         0.1565
     32 C           9.3260   10.3570   -9.9800 C.2       1 THR         0.2065
     33 O           8.1850   10.8250   -9.9620 O.2       1 THR        -0.3943
     34 CB          9.1950    9.2060  -12.1940 C.3       1 THR         0.0924
     35 OG1         9.2940    7.8670  -11.6960 O.3       1 THR        -0.3874
     36 CG2         9.6330    9.2430  -13.6470 C.3       1 THR        -0.0346
     37 N           9.9860   10.0000   -8.8730 N.am      1 SEP        -0.2612
     38 CA          9.3690   10.0380   -7.5390 C.3       1 SEP         0.1588
     39 CB         10.1080    9.1010   -6.5600 C.3       1 SEP         0.1184
     40 OG          9.2770    8.8820   -5.4060 O.3       1 SEP        -0.2714
     41 C           9.3270   11.4520   -6.9550 C.2       1 SEP         0.2090
     42 O          10.3780   12.0790   -6.7960 O.2       1 SEP        -0.3941
     43 P           8.9370    7.2440   -5.3570 P.3       1 SEP         0.2010
     44 O1P         8.4250    6.6850   -6.8440 O.co2     1 SEP        -0.5537
     45 O2P        10.2810    6.4490   -4.8530 O.co2     1 SEP        -0.5537
     46 O3P         7.5580    6.9840   -4.2840 O.co2     1 SEP        -0.5537
     47 N           8.1090   11.9450   -6.6210 N.am      1 PRO        -0.2498
     48 CA          7.8770   13.3000   -6.0890 C.3       1 PRO         0.1338
     49 C           8.8830   13.7450   -5.0170 C.2       1 PRO         0.2042
     50 O           9.2180   12.9670   -4.1160 O.2       1 PRO        -0.3944
     51 CB          6.4690   13.2000   -5.4880 C.3       1 PRO        -0.0104
     52 CG          5.7800   12.1840   -6.3320 C.3       1 PRO        -0.0281
     53 CD          6.8440   11.1920   -6.7610 C.3       1 PRO         0.0369
     54 N           9.3540   14.9890   -5.1340 N.am      1 SER        -0.2616
     55 CA         10.2820   15.5940   -4.1740 C.3       1 SER         0.1539
     56 C           9.6820   15.6670   -2.7750 C.2       1 SER         0.2063
     57 O           8.4730   15.8720   -2.6230 O.2       1 SER        -0.3943
     58 CB         10.6710   16.9980   -4.6330 C.3       1 SER         0.0843
     59 OG         11.3010   16.9580   -5.8990 O.3       1 SER        -0.3903
     60 N          10.5290   15.5060   -1.7590 N.am      1 TYR        -0.2621
     61 CA         10.0670   15.4920   -0.3670 C.3       1 TYR         0.1390
     62 C           9.4860   16.8390    0.0670 C.2       1 TYR         0.2059
     63 O           9.8870   17.8930   -0.4370 O.2       1 TYR        -0.3942
     64 CB         11.1680   14.9950    0.6000 C.3       1 TYR         0.0163
     65 CG         12.2520   15.9990    0.9640 C.ar      1 TYR        -0.0493
     66 CD1        12.0050   17.0250    1.8830 C.ar      1 TYR        -0.0685
     67 CD2        13.5370   15.8970    0.4260 C.ar      1 TYR        -0.0685
     68 CE1        12.9960   17.9460    2.2290 C.ar      1 TYR        -0.0398
     69 CE2        14.5430   16.8140    0.7710 C.ar      1 TYR        -0.0398
     70 CZ         14.2610   17.8400    1.6680 C.ar      1 TYR         0.0805
     71 OH         15.2350   18.7540    2.0210 O.3       1 TYR        -0.3376
     72 N           8.5320   16.7930    0.9930 N.am      1 SEP        -0.2623
     73 CA          7.8950   17.9990    1.5020 C.3       1 SEP         0.1403
     74 CB          6.4520   17.7080    1.9070 C.3       1 SEP         0.1171
     75 OG          5.7730   18.9070    2.2320 O.3       1 SEP        -0.2713
     76 C           8.6750   18.5730    2.6800 C.2       1 SEP         0.1271
     77 O           9.6460   19.3050    2.4930 O.2       1 SEP        -0.3724
     78 P           4.4640   19.0990    1.3080 P.3       1 SEP         0.2010
     79 O1P         3.8780   20.5800    1.5490 O.co2     1 SEP        -0.5537
     80 O2P         4.8510   18.9110   -0.2490 O.co2     1 SEP        -0.5537
     81 O3P         3.3370   18.0280    1.7340 O.co2     1 SEP        -0.5537
     82 H1         15.9139    4.6006   -4.1485 H         1 TYR         0.2017
     83 H2         16.2455    4.0176   -5.6517 H         1 TYR         0.2017
     84 H3         14.7114    3.9425   -5.0597 H         1 TYR         0.2017
     85 H4         14.4894    6.3016   -5.0480 H         1 TYR         0.1120
     86 H5         17.3058    6.2558   -6.2132 H         1 TYR         0.0486
     87 H6         16.8253    6.8463   -4.5862 H         1 TYR         0.0486
     88 H7         15.3426    8.9245   -4.4450 H         1 TYR         0.0530
     89 H8         17.1491    7.6848   -8.1144 H         1 TYR         0.0530
     90 H9         15.0028   11.1814   -5.3743 H         1 TYR         0.0525
     91 H10        16.8230    9.9429   -9.0518 H         1 TYR         0.0525
     92 H11        15.1708   11.9087   -8.5820 H         1 TYR         0.2458
     93 H12        13.5888    7.3679   -6.7485 H         1 SEP         0.1885
     94 H13        13.9247    6.2106   -9.4614 H         1 SEP         0.0827
     95 H14        11.2986    6.5981   -7.9504 H         1 SEP         0.0662
     96 H15        11.9447    5.0889   -8.6795 H         1 SEP         0.0662
     97 H16        14.3366   10.5897  -10.1073 H         1 PRO         0.0802
     98 H17        15.8098   10.0534  -11.8470 H         1 PRO         0.0313
     99 H18        14.4149   10.4954  -12.8889 H         1 PRO         0.0313
    100 H19        15.5276    8.0695  -13.0895 H         1 PRO         0.0287
    101 H20        13.7420    8.2526  -13.1583 H         1 PRO         0.0287
    102 H21        13.8925    6.7040  -11.4169 H         1 PRO         0.0524
    103 H22        15.4944    7.3126  -10.8782 H         1 PRO         0.0524
    104 H23        11.6041    8.7065  -10.9889 H         1 THR         0.1884
    105 H24        10.1078   11.1310  -11.8225 H         1 THR         0.0826
    106 H25         8.1457    9.5310  -12.1365 H         1 THR         0.0639
    107 H26        10.2013    7.5865  -11.7230 H         1 THR         0.2101
    108 H27         9.0039    8.5603  -14.2371 H         1 THR         0.0257
    109 H28        10.6845    8.9288  -13.7211 H         1 THR         0.0257
    110 H29         9.5279   10.2666  -14.0357 H         1 THR         0.0257
    111 H30        10.9350    9.6957   -8.9557 H         1 SEP         0.1884
    112 H31         8.3331    9.6821   -7.6406 H         1 SEP         0.0827
    113 H32        11.0558    9.5649   -6.2495 H         1 SEP         0.0662
    114 H33        10.3145    8.1400   -7.0538 H         1 SEP         0.0662
    115 H34         7.8980   14.0315   -6.9102 H         1 PRO         0.0802
    116 H35         5.9515   14.1690   -5.5443 H         1 PRO         0.0313
    117 H36         6.5152   12.8693   -4.4399 H         1 PRO         0.0313
    118 H37         5.3295   12.6637   -7.2134 H         1 PRO         0.0287
    119 H38         4.9969   11.6746   -5.7513 H         1 PRO         0.0287
    120 H39         6.8407   10.3073   -6.1073 H         1 PRO         0.0524
    121 H40         6.6887   10.8780   -7.8037 H         1 PRO         0.0524
    122 H41         9.0584   15.5362   -5.9170 H         1 SER         0.1884
    123 H42        11.1883   14.9721   -4.1314 H         1 SER         0.0823
    124 H43        11.3632   17.4379   -3.8999 H         1 SER         0.0606
    125 H44         9.7654   17.6188   -4.7007 H         1 SER         0.0606
    126 H45        11.5336   17.8402   -6.1637 H         1 SER         0.2097
    127 H46        11.5039   15.3919   -1.9503 H         1 TYR         0.1885
    128 H47         9.2454   14.7625   -0.3139 H         1 TYR         0.0821
    129 H48        11.6580   14.1283    0.1323 H         1 TYR         0.0453
    130 H49        10.6771   14.6797    1.5325 H         1 TYR         0.0453
    131 H50        11.0235   17.1066    2.3359 H         1 TYR         0.0530
    132 H51        13.7615   15.0965   -0.2696 H         1 TYR         0.0530
    133 H52        12.7780   18.7408    2.9332 H         1 TYR         0.0525
    134 H53        15.5339   16.7232    0.3409 H         1 TYR         0.0525
    135 H54        15.9647   18.2979    2.4235 H         1 TYR         0.2458
    136 H55         8.2441   15.9043    1.3498 H         1 SEP         0.1885
    137 H56         7.8846   18.7492    0.6976 H         1 SEP         0.0817
    138 H57         6.4498   17.0428    2.7830 H         1 SEP         0.0662
    139 H58         5.9345   17.2150    1.0709 H         1 SEP         0.0662
    140 H59         8.3694   18.3325    3.6972 H         1 SEP         0.1374
@<TRIPOS>BOND
     1    1    2 1  
     2    2    3 1  
     3    2    5 1  
     4    3    4 2  
     5    3   13 am 
     6    5    6 1  
     7    6    7 ar 
     8    6    8 ar 
     9    7    9 ar 
    10    8   10 ar 
    11    9   11 ar 
    12   10   11 ar 
    13   11   12 1  
    14   13   14 1  
    15   14   15 1  
    16   14   17 1  
    17   15   16 1  
    18   16   19 1  
    19   17   18 2  
    20   17   23 am 
    21   19   20 ar 
    22   19   21 ar 
    23   19   22 ar 
    24   23   24 1  
    25   23   29 1  
    26   24   25 1  
    27   24   27 1  
    28   25   26 2  
    29   25   30 am 
    30   27   28 1  
    31   28   29 1  
    32   30   31 1  
    33   31   32 1  
    34   31   34 1  
    35   32   33 2  
    36   32   37 am 
    37   34   35 1  
    38   34   36 1  
    39   37   38 1  
    40   38   39 1  
    41   38   41 1  
    42   39   40 1  
    43   40   43 1  
    44   41   42 2  
    45   41   47 am 
    46   43   44 ar 
    47   43   45 ar 
    48   43   46 ar 
    49   47   48 1  
    50   47   53 1  
    51   48   49 1  
    52   48   51 1  
    53   49   50 2  
    54   49   54 am 
    55   51   52 1  
    56   52   53 1  
    57   54   55 1  
    58   55   56 1  
    59   55   58 1  
    60   56   57 2  
    61   56   60 am 
    62   58   59 1  
    63   60   61 1  
    64   61   62 1  
    65   61   64 1  
    66   62   63 2  
    67   62   72 am 
    68   64   65 1  
    69   65   66 ar 
    70   65   67 ar 
    71   66   68 ar 
    72   67   69 ar 
    73   68   70 ar 
    74   69   70 ar 
    75   70   71 1  
    76   72   73 1  
    77   73   74 1  
    78   73   76 1  
    79   74   75 1  
    80   75   78 1  
    81   76   77 2  
    82   78   79 ar 
    83   78   80 ar 
    84   78   81 ar 
    85    1   82 1  
    86    1   83 1  
    87    1   84 1  
    88    2   85 1  
    89    5   86 1  
    90    5   87 1  
    91    7   88 1  
    92    8   89 1  
    93    9   90 1  
    94   10   91 1  
    95   12   92 1  
    96   13   93 1  
    97   14   94 1  
    98   15   95 1  
    99   15   96 1  
   100   24   97 1  
   101   27   98 1  
   102   27   99 1  
   103   28  100 1  
   104   28  101 1  
   105   29  102 1  
   106   29  103 1  
   107   30  104 1  
   108   31  105 1  
   109   34  106 1  
   110   35  107 1  
   111   36  108 1  
   112   36  109 1  
   113   36  110 1  
   114   37  111 1  
   115   38  112 1  
   116   39  113 1  
   117   39  114 1  
   118   48  115 1  
   119   51  116 1  
   120   51  117 1  
   121   52  118 1  
   122   52  119 1  
   123   53  120 1  
   124   53  121 1  
   125   54  122 1  
   126   55  123 1  
   127   58  124 1  
   128   58  125 1  
   129   59  126 1  
   130   60  127 1  
   131   61  128 1  
   132   64  129 1  
   133   64  130 1  
   134   66  131 1  
   135   67  132 1  
   136   68  133 1  
   137   69  134 1  
   138   71  135 1  
   139   72  136 1  
   140   73  137 1  
   141   74  138 1  
   142   74  139 1  
   143   76  140 1  
@<TRIPOS>SUBSTRUCTURE
     1 TYR         1

