3d9k_ligand
  -I-interpret- 

146149  0  0  0  0  0  0  0  0999 V2000
   15.5580    4.4890   -5.0850 N   0  3  0  0  0
   15.2660    5.8340   -5.6710 C   0  0  0  0  0
   14.7210    5.7420   -7.0950 C   0  0  0  0  0
   15.0710    4.8390   -7.8610 O   0  0  0  0  0
   16.5070    6.7420   -5.6340 C   0  0  0  0  0
   16.2860    8.1410   -6.2070 C   0  0  0  0  0
   15.6730    9.1430   -5.4540 C   0  0  0  0  0
   16.6840    8.4520   -7.5060 C   0  0  0  0  0
   15.4790   10.4150   -5.9750 C   0  0  0  0  0
   16.4990    9.7230   -8.0410 C   0  0  0  0  0
   15.8980   10.7040   -7.2720 C   0  0  0  0  0
   15.7170   11.9690   -7.8070 O   0  0  0  0  0
   13.8570    6.6900   -7.4330 N   0  0  0  0  0
   13.2920    6.7730   -8.7590 C   0  0  0  0  0
   11.8820    6.1820   -8.7850 C   0  0  0  0  0
   11.2400    6.4970  -10.0060 O   0  0  0  0  0
   13.2710    8.2280   -9.1590 C   0  0  0  0  0
   12.7710    9.0630   -8.4020 O   0  0  0  0  0
   10.9540    5.1880  -10.9020 P   0  0  0  0  0
   10.5000    5.6730  -12.3610 O   0  0  0  0  0
   12.2940    4.2950  -11.0350 O   0  0  0  0  0
    9.7610    4.3240  -10.2500 O   0  0  0  0  0
   13.8380    8.5480  -10.3430 N   0  0  0  0  0
   13.8720    9.9290  -10.8540 C   0  0  0  0  0
   12.4900   10.5060  -11.2110 C   0  0  0  0  0
   12.3930   11.6920  -11.5360 O   0  0  0  0  0
   14.7650    9.8170  -12.0970 C   0  0  0  0  0
   14.6350    8.3860  -12.5300 C   0  0  0  0  0
   14.5060    7.6040  -11.2630 C   0  0  0  0  0
   11.4430    9.6800  -11.1510 N   0  0  0  0  0
   10.0550   10.1560  -11.3160 C   0  0  0  0  0
    9.3260   10.3570   -9.9800 C   0  0  0  0  0
    8.1850   10.8250   -9.9620 O   0  0  0  0  0
    9.1950    9.2060  -12.1940 C   0  0  0  0  0
    9.2940    7.8670  -11.6960 O   0  0  0  0  0
    9.6330    9.2430  -13.6470 C   0  0  0  0  0
    9.9860   10.0000   -8.8730 N   0  0  0  0  0
    9.3690   10.0380   -7.5390 C   0  0  0  0  0
   10.1080    9.1010   -6.5600 C   0  0  0  0  0
    9.2770    8.8820   -5.4060 O   0  0  0  0  0
    9.3270   11.4520   -6.9550 C   0  0  0  0  0
   10.3780   12.0790   -6.7960 O   0  0  0  0  0
    8.9370    7.2440   -5.3570 P   0  0  0  0  0
    8.4250    6.6850   -6.8440 O   0  0  0  0  0
   10.2810    6.4490   -4.8530 O   0  0  0  0  0
    7.5580    6.9840   -4.2840 O   0  0  0  0  0
    8.1090   11.9450   -6.6210 N   0  0  0  0  0
    7.8770   13.3000   -6.0890 C   0  0  0  0  0
    8.8830   13.7450   -5.0170 C   0  0  0  0  0
    9.2180   12.9670   -4.1160 O   0  0  0  0  0
    6.4690   13.2000   -5.4880 C   0  0  0  0  0
    5.7800   12.1840   -6.3320 C   0  0  0  0  0
    6.8440   11.1920   -6.7610 C   0  0  0  0  0
    9.3540   14.9890   -5.1340 N   0  0  0  0  0
   10.2820   15.5940   -4.1740 C   0  0  0  0  0
    9.6820   15.6670   -2.7750 C   0  0  0  0  0
    8.4730   15.8720   -2.6230 O   0  0  0  0  0
   10.6710   16.9980   -4.6330 C   0  0  0  0  0
   11.3010   16.9580   -5.8990 O   0  0  0  0  0
   10.5290   15.5060   -1.7590 N   0  0  0  0  0
   10.0670   15.4920   -0.3670 C   0  0  0  0  0
    9.4860   16.8390    0.0670 C   0  0  0  0  0
    9.8870   17.8930   -0.4370 O   0  0  0  0  0
   11.1680   14.9950    0.6000 C   0  0  0  0  0
   12.2520   15.9990    0.9640 C   0  0  0  0  0
   12.0050   17.0250    1.8830 C   0  0  0  0  0
   13.5370   15.8970    0.4260 C   0  0  0  0  0
   12.9960   17.9460    2.2290 C   0  0  0  0  0
   14.5430   16.8140    0.7710 C   0  0  0  0  0
   14.2610   17.8400    1.6680 C   0  0  0  0  0
   15.2350   18.7540    2.0210 O   0  0  0  0  0
    8.5320   16.7930    0.9930 N   0  0  0  0  0
    7.8950   17.9990    1.5020 C   0  0  0  0  0
    6.4520   17.7080    1.9070 C   0  0  0  0  0
    5.7730   18.9070    2.2320 O   0  0  0  0  0
    8.6750   18.5730    2.6800 C   0  0  0  0  0
    9.6460   19.3050    2.4930 O   0  0  0  0  0
    4.4640   19.0990    1.3080 P   0  0  0  0  0
    3.8780   20.5800    1.5490 O   0  0  0  0  0
    4.8510   18.9110   -0.2490 O   0  0  0  0  0
    3.3370   18.0280    1.7340 O   0  0  0  0  0
   14.7174    3.9126   -5.1243 H   0  0  0  0  0
   16.3037    4.0418   -5.6182 H   0  0  0  0  0
   15.8513    4.5988   -4.1143 H   0  0  0  0  0
   14.4890    6.2784   -5.0491 H   0  0  0  0  0
   17.2708    6.2633   -6.2469 H   0  0  0  0  0
   16.7803    6.8660   -4.5861 H   0  0  0  0  0
   15.3408    8.9233   -4.4394 H   0  0  0  0  0
   17.1517    7.6806   -8.1178 H   0  0  0  0  0
   15.0001   11.1857   -5.3710 H   0  0  0  0  0
   16.8248    9.9442   -9.0574 H   0  0  0  0  0
   16.0619   11.9888   -8.7027 H   0  0  0  0  0
   13.5834    7.3814   -6.7348 H   0  0  0  0  0
   13.8941    6.1980   -9.4625 H   0  0  0  0  0
   11.3050    6.6016   -7.9609 H   0  0  0  0  0
   11.9484    5.0984   -8.6870 H   0  0  0  0  0
   12.5698    4.0021  -10.1634 H   0  0  0  0  0
   10.0228    4.0283   -9.3750 H   0  0  0  0  0
   14.2410   10.6213  -10.0973 H   0  0  0  0  0
   15.7993   10.0846  -11.8808 H   0  0  0  0  0
   14.4594   10.5092  -12.8816 H   0  0  0  0  0
   15.4955    8.0633  -13.1161 H   0  0  0  0  0
   13.7742    8.2397  -13.1825 H   0  0  0  0  0
   13.9422    6.6808  -11.3969 H   0  0  0  0  0
   15.4684    7.2606  -10.8836 H   0  0  0  0  0
   11.6073    8.6870  -10.9857 H   0  0  0  0  0
   10.1611   11.1189  -11.8158 H   0  0  0  0  0
    8.1604    9.5455  -12.1438 H   0  0  0  0  0
    8.7612    7.2837  -12.2414 H   0  0  0  0  0
    9.5284   10.2578  -14.0310 H   0  0  0  0  0
   10.6751    8.9315  -13.7191 H   0  0  0  0  0
    9.0089    8.5662  -14.2306 H   0  0  0  0  0
   10.9540    9.6896   -8.9573 H   0  0  0  0  0
    8.3423    9.6949   -7.6669 H   0  0  0  0  0
   11.0498    9.5568   -6.2543 H   0  0  0  0  0
   10.3176    8.1495   -7.0486 H   0  0  0  0  0
    7.6394    7.1670   -7.1126 H   0  0  0  0  0
    6.7985    7.4667   -4.6182 H   0  0  0  0  0
    7.9905   14.0480   -6.8737 H   0  0  0  0  0
    5.9508   14.1589   -5.4949 H   0  0  0  0  0
    6.4910   12.9134   -4.4366 H   0  0  0  0  0
    5.3072   12.6493   -7.1969 H   0  0  0  0  0
    4.9840   11.6883   -5.7763 H   0  0  0  0  0
    6.8327   10.2853   -6.1561 H   0  0  0  0  0
    6.6875   10.8307   -7.7774 H   0  0  0  0  0
    9.0524   15.5472   -5.9327 H   0  0  0  0  0
   11.1667   14.9588   -4.1311 H   0  0  0  0  0
   11.3655   17.4240   -3.9089 H   0  0  0  0  0
    9.7687   17.6047   -4.7092 H   0  0  0  0  0
   11.5360   17.8495   -6.1665 H   0  0  0  0  0
   11.5234   15.3896   -1.9542 H   0  0  0  0  0
    9.2494   14.7729   -0.3159 H   0  0  0  0  0
   11.6734   14.1760    0.0882 H   0  0  0  0  0
   10.6617   14.7447    1.5323 H   0  0  0  0  0
   11.0181   17.1070    2.3384 H   0  0  0  0  0
   13.7627   15.0920   -0.2734 H   0  0  0  0  0
   12.7768   18.7452    2.9371 H   0  0  0  0  0
   15.5394   16.7227    0.3386 H   0  0  0  0  0
   16.0482   18.5501    1.5533 H   0  0  0  0  0
    8.2383   15.8865    1.3569 H   0  0  0  0  0
    7.8905   18.7430    0.7054 H   0  0  0  0  0
    6.4554   17.0566    2.7809 H   0  0  0  0  0
    5.9411   17.2285    1.0720 H   0  0  0  0  0
    8.3691   18.3323    3.6981 H   0  0  0  0  0
    5.1994   18.0271   -0.3865 H   0  0  0  0  0
    3.6729   17.1394    1.5955 H   0  0  0  0  0
  1  2  1  0  0  0
  2  3  1  0  0  0
  2  5  1  0  0  0
  3  4  2  0  0  0
  3 13  1  0  0  0
  5  6  1  0  0  0
  6  7  4  0  0  0
  6  8  4  0  0  0
  7  9  4  0  0  0
  8 10  4  0  0  0
  9 11  4  0  0  0
 10 11  4  0  0  0
 11 12  1  0  0  0
 13 14  1  0  0  0
 14 15  1  0  0  0
 14 17  1  0  0  0
 15 16  1  0  0  0
 16 19  1  0  0  0
 17 18  2  0  0  0
 17 23  1  0  0  0
 19 20  2  0  0  0
 19 21  1  0  0  0
 19 22  1  0  0  0
 23 24  1  0  0  0
 23 29  1  0  0  0
 24 25  1  0  0  0
 24 27  1  0  0  0
 25 26  2  0  0  0
 25 30  1  0  0  0
 27 28  1  0  0  0
 28 29  1  0  0  0
 30 31  1  0  0  0
 31 32  1  0  0  0
 31 34  1  0  0  0
 32 33  2  0  0  0
 32 37  1  0  0  0
 34 35  1  0  0  0
 34 36  1  0  0  0
 37 38  1  0  0  0
 38 39  1  0  0  0
 38 41  1  0  0  0
 39 40  1  0  0  0
 40 43  1  0  0  0
 41 42  2  0  0  0
 41 47  1  0  0  0
 43 44  1  0  0  0
 43 45  2  0  0  0
 43 46  1  0  0  0
 47 48  1  0  0  0
 47 53  1  0  0  0
 48 49  1  0  0  0
 48 51  1  0  0  0
 49 50  2  0  0  0
 49 54  1  0  0  0
 51 52  1  0  0  0
 52 53  1  0  0  0
 54 55  1  0  0  0
 55 56  1  0  0  0
 55 58  1  0  0  0
 56 57  2  0  0  0
 56 60  1  0  0  0
 58 59  1  0  0  0
 60 61  1  0  0  0
 61 62  1  0  0  0
 61 64  1  0  0  0
 62 63  2  0  0  0
 62 72  1  0  0  0
 64 65  1  0  0  0
 65 66  4  0  0  0
 65 67  4  0  0  0
 66 68  4  0  0  0
 67 69  4  0  0  0
 68 70  4  0  0  0
 69 70  4  0  0  0
 70 71  1  0  0  0
 72 73  1  0  0  0
 73 74  1  0  0  0
 73 76  1  0  0  0
 74 75  1  0  0  0
 75 78  1  0  0  0
 76 77  2  0  0  0
 78 79  2  0  0  0
 78 80  1  0  0  0
 78 81  1  0  0  0
  1 82  1  0  0  0
  1 83  1  0  0  0
  1 84  1  0  0  0
  2 85  1  0  0  0
  5 86  1  0  0  0
  5 87  1  0  0  0
  7 88  1  0  0  0
  8 89  1  0  0  0
  9 90  1  0  0  0
 10 91  1  0  0  0
 12 92  1  0  0  0
 13 93  1  0  0  0
 14 94  1  0  0  0
 15 95  1  0  0  0
 15 96  1  0  0  0
 21 97  1  0  0  0
 22 98  1  0  0  0
 24 99  1  0  0  0
 27100  1  0  0  0
 27101  1  0  0  0
 28102  1  0  0  0
 28103  1  0  0  0
 29104  1  0  0  0
 29105  1  0  0  0
 30106  1  0  0  0
 31107  1  0  0  0
 34108  1  0  0  0
 35109  1  0  0  0
 36110  1  0  0  0
 36111  1  0  0  0
 36112  1  0  0  0
 37113  1  0  0  0
 38114  1  0  0  0
 39115  1  0  0  0
 39116  1  0  0  0
 44117  1  0  0  0
 46118  1  0  0  0
 48119  1  0  0  0
 51120  1  0  0  0
 51121  1  0  0  0
 52122  1  0  0  0
 52123  1  0  0  0
 53124  1  0  0  0
 53125  1  0  0  0
 54126  1  0  0  0
 55127  1  0  0  0
 58128  1  0  0  0
 58129  1  0  0  0
 59130  1  0  0  0
 60131  1  0  0  0
 61132  1  0  0  0
 64133  1  0  0  0
 64134  1  0  0  0
 66135  1  0  0  0
 67136  1  0  0  0
 68137  1  0  0  0
 69138  1  0  0  0
 71139  1  0  0  0
 72140  1  0  0  0
 73141  1  0  0  0
 74142  1  0  0  0
 74143  1  0  0  0
 76144  1  0  0  0
 80145  1  0  0  0
 81146  1  0  0  0
M  END
$$$$
