5f32_ligand
  -I-interpret- 

 24 26  0  0  0  0  0  0  0  0999 V2000
   11.7800   49.3780  -53.7820 O   0  0  0  0  0
   12.8300   49.3050  -53.1560 C   0  0  0  0  0
   13.6350   48.0870  -53.0560 C   0  0  0  0  0
   13.2710   46.9270  -53.7290 C   0  0  0  0  0
   14.1130   45.8430  -53.5960 C   0  0  0  0  0
   15.2300   45.8410  -52.8540 N   0  0  0  0  0
   13.3200   50.3710  -52.4810 N   0  0  0  0  0
   14.4630   50.3190  -51.7580 C   0  0  0  0  0
   15.2220   49.2550  -51.6170 N   0  0  0  0  0
   14.7990   48.1160  -52.2780 C   0  0  0  0  0
   15.5740   46.9470  -52.1770 C   0  0  0  0  0
   16.7200   46.8150  -51.2660 C   0  0  0  0  0
   17.1300   45.5250  -50.9560 N   0  0  0  0  0
   17.4150   47.8030  -50.6500 C   0  0  0  0  0
   18.6300   47.1600  -49.6310 S   0  0  0  0  0
   18.1290   45.5580  -50.1060 C   0  0  0  0  0
   18.7470   44.4750  -49.6270 N   0  0  0  0  0
   12.3646   46.8764  -54.3323 H   0  0  0  0  0
   13.8537   44.9281  -54.1288 H   0  0  0  0  0
   12.8059   51.2511  -52.5188 H   0  0  0  0  0
   14.7792   51.2316  -51.2527 H   0  0  0  0  0
   17.2246   48.8676  -50.7861 H   0  0  0  0  0
   18.4476   43.5452  -49.9208 H   0  0  0  0  0
   19.5183   44.5778  -48.9675 H   0  0  0  0  0
  1  2  2  0  0  0
  2  3  1  0  0  0
  2  7  1  0  0  0
  3  4  4  0  0  0
  3 10  4  0  0  0
  4  5  4  0  0  0
  5  6  4  0  0  0
  6 11  4  0  0  0
  7  8  1  0  0  0
  8  9  2  0  0  0
  9 10  1  0  0  0
 10 11  4  0  0  0
 11 12  1  0  0  0
 12 13  4  0  0  0
 12 14  4  0  0  0
 13 16  4  0  0  0
 14 15  4  0  0  0
 15 16  4  0  0  0
 16 17  1  0  0  0
  4 18  1  0  0  0
  5 19  1  0  0  0
  7 20  1  0  0  0
  8 21  1  0  0  0
 14 22  1  0  0  0
 17 23  1  0  0  0
 17 24  1  0  0  0
M  END
$$$$
