4kon_ligand
  -I-interpret- 

 61 62  0  0  0  0  0  0  0  0999 V2000
  -27.0380    0.2630  -13.7380 C   0  0  0  0  0
  -26.4380    0.8620  -12.4840 C   0  0  0  0  0
  -27.0590   -0.1320  -11.6880 C   0  0  0  0  0
  -26.6660   -1.5070  -11.7660 C   0  0  0  0  0
  -25.2300   -1.7510  -11.4540 C   0  0  0  0  0
  -24.4060   -0.8130  -12.2620 C   0  0  0  0  0
  -23.0440   -0.7230  -11.9220 C   0  0  0  0  0
  -22.4120    0.4090  -12.7800 C   0  0  0  0  0
  -20.8790    0.3540  -12.7750 C   0  0  0  0  0
  -23.8370   -3.9130  -11.0800 C   0  0  0  0  0
  -23.5860   -5.3610  -11.4620 C   0  0  0  0  0
  -24.9150   -3.1540  -11.7690 N   0  0  0  0  0
  -26.2430   -0.1120  -14.6860 O   0  0  0  0  0
  -28.2870    0.1540  -13.8930 O   0  0  0  0  0
  -27.5170   -2.3480  -10.9690 O   0  0  0  0  0
  -25.0850    0.5480  -12.0110 O   0  0  0  0  0
  -22.8680   -0.4070  -10.5750 O   0  0  0  0  0
  -22.8710    0.4080  -14.0960 O   0  0  0  0  0
  -20.2020    1.5370  -13.0160 O   0  0  0  0  0
  -23.1280   -3.3750  -10.1970 O   0  0  0  0  0
  -28.4680    5.9010  -10.7270 C   0  0  0  0  0
  -27.8100    7.0020  -11.5380 C   0  0  0  0  0
  -27.6190    6.5970  -12.9960 C   0  0  0  0  0
  -26.8520    5.2840  -13.1150 C   0  0  0  0  0
  -27.4270    4.2480  -12.1480 C   0  0  0  0  0
  -26.4660    3.0630  -11.9610 C   0  0  0  0  0
  -28.5050    6.2810   -9.3630 O   0  0  0  0  0
  -28.6360    8.1490  -11.4790 O   0  0  0  0  0
  -26.9310    7.6200  -13.6680 O   0  0  0  0  0
  -25.4840    5.4810  -12.8300 O   0  0  0  0  0
  -27.6240    4.7880  -10.8520 O   0  0  0  0  0
  -27.2070    1.8630  -11.7910 O   0  0  0  0  0
  -28.0918   -0.1365  -12.0364 H   0  0  0  0  0
  -26.8030    0.1542  -10.6679 H   0  0  0  0  0
  -26.7911   -1.7777  -12.8144 H   0  0  0  0  0
  -25.0162   -1.5780  -10.3993 H   0  0  0  0  0
  -24.3773   -1.1578  -13.2956 H   0  0  0  0  0
  -22.5723   -1.6878  -12.1085 H   0  0  0  0  0
  -22.7320    1.3377  -12.3075 H   0  0  0  0  0
  -20.6045   -0.3151  -13.5905 H   0  0  0  0  0
  -20.5973    0.0524  -11.7661 H   0  0  0  0  0
  -22.5671   -5.4657  -11.8347 H   0  0  0  0  0
  -23.7207   -5.9952  -10.5858 H   0  0  0  0  0
  -24.2907   -5.6579  -12.2388 H   0  0  0  0  0
  -25.4594   -3.6261  -12.4909 H   0  0  0  0  0
  -25.3334    0.0341  -14.4159 H   0  0  0  0  0
  -28.4349   -2.1721  -11.1883 H   0  0  0  0  0
  -23.2540   -1.0984  -10.0322 H   0  0  0  0  0
  -22.4518    1.1230  -14.5805 H   0  0  0  0  0
  -19.2563    1.3748  -12.9871 H   0  0  0  0  0
  -29.4834    5.6996  -11.0685 H   0  0  0  0  0
  -26.8240    7.2012  -11.1183 H   0  0  0  0  0
  -28.5997    6.4463  -13.4473 H   0  0  0  0  0
  -26.9536    4.9217  -14.1380 H   0  0  0  0  0
  -28.3721    3.9330  -12.5903 H   0  0  0  0  0
  -25.8509    3.2344  -11.0776 H   0  0  0  0  0
  -25.8310    2.9721  -12.8423 H   0  0  0  0  0
  -28.9212    5.5850   -8.8492 H   0  0  0  0  0
  -28.2347    8.8574  -11.9876 H   0  0  0  0  0
  -26.8075    7.3710  -14.5869 H   0  0  0  0  0
  -25.0181    4.6454  -12.9097 H   0  0  0  0  0
  2  1  1  0  0  0
  1 13  1  0  0  0
  1 14  2  0  0  0
  2  3  1  0  0  0
  2 16  1  0  0  0
 32  2  1  0  0  0
  3  4  1  0  0  0
  4  5  1  0  0  0
  4 15  1  0  0  0
  6  5  1  0  0  0
  5 12  1  0  0  0
  6  7  1  0  0  0
 16  6  1  0  0  0
  7  8  1  0  0  0
  7 17  1  0  0  0
  8  9  1  0  0  0
  8 18  1  0  0  0
  9 19  1  0  0  0
 10 11  1  0  0  0
 12 10  1  0  0  0
 10 20  2  0  0  0
 21 22  1  0  0  0
 21 27  1  0  0  0
 31 21  1  0  0  0
 23 22  1  0  0  0
 22 28  1  0  0  0
 24 23  1  0  0  0
 23 29  1  0  0  0
 25 24  1  0  0  0
 24 30  1  0  0  0
 26 25  1  0  0  0
 25 31  1  0  0  0
 26 32  1  0  0  0
  3 33  1  0  0  0
  3 34  1  0  0  0
  4 35  1  0  0  0
  5 36  1  0  0  0
  6 37  1  0  0  0
  7 38  1  0  0  0
  8 39  1  0  0  0
  9 40  1  0  0  0
  9 41  1  0  0  0
 11 42  1  0  0  0
 11 43  1  0  0  0
 11 44  1  0  0  0
 12 45  1  0  0  0
 13 46  1  0  0  0
 15 47  1  0  0  0
 17 48  1  0  0  0
 18 49  1  0  0  0
 19 50  1  0  0  0
 21 51  1  0  0  0
 22 52  1  0  0  0
 23 53  1  0  0  0
 24 54  1  0  0  0
 25 55  1  0  0  0
 26 56  1  0  0  0
 26 57  1  0  0  0
 27 58  1  0  0  0
 28 59  1  0  0  0
 29 60  1  0  0  0
 30 61  1  0  0  0
M  END
$$$$
