2fl5_ligand
  -I-interpret- 

 47 49  0  0  0  0  0  0  0  0999 V2000
   55.3470   86.2940   76.9890 N   0  0  0  0  0
   54.1710   85.7120   77.4570 C   0  0  0  0  0
   53.2240   85.6970   76.7120 O   0  0  0  0  0
   54.2310   85.2080   78.7210 N   0  0  0  0  0
   55.3130   85.2050   79.6210 C   0  0  0  0  0
   55.2190   84.7280   80.7030 O   0  0  0  0  0
   56.5650   85.8470   79.0780 C   0  0  0  0  0
   57.6290   85.9100   79.8560 N   0  0  0  0  0
   58.7990   86.5200   79.3590 C   0  0  0  0  0
   59.9100   86.5580   80.2830 C   0  0  0  0  0
   61.0640   87.1720   79.8080 C   0  0  0  0  0
   62.3380   87.2990   80.6640 C   0  0  0  0  0
   61.1000   87.7340   78.4540 C   0  0  0  0  0
   62.4210   88.4110   77.9750 C   0  0  0  0  0
   60.0530   87.7190   77.5320 C   0  0  0  0  0
   58.8590   87.0890   78.0360 C   0  0  0  0  0
   57.6270   86.9800   77.2060 N   0  0  0  0  0
   56.5180   86.3880   77.7500 C   0  0  0  0  0
   57.6310   87.5520   75.8220 C   0  0  0  0  0
   57.9190   86.3770   74.8630 C   0  0  0  0  0
   59.2980   85.9680   75.0170 O   0  0  0  0  0
   57.9340   86.6940   73.4380 C   0  0  0  0  0
   58.8890   87.7170   73.1710 O   0  0  0  0  0
   56.6290   87.1310   72.8590 C   0  0  0  0  0
   55.4910   86.2730   73.0180 O   0  0  0  0  0
   56.9980   87.3450   71.3370 C   0  0  0  0  0
   56.7710   86.0860   70.6740 O   0  0  0  0  0
   53.3739   84.7729   79.0622 H   0  0  0  0  0
   59.8475   86.1338   81.2851 H   0  0  0  0  0
   62.1134   87.8699   81.5650 H   0  0  0  0  0
   62.6891   86.3048   80.9404 H   0  0  0  0  0
   63.1100   87.8119   80.0903 H   0  0  0  0  0
   62.6599   89.2454   78.6343 H   0  0  0  0  0
   63.2313   87.6824   78.0008 H   0  0  0  0  0
   62.2917   88.7767   76.9563 H   0  0  0  0  0
   60.1304   88.1417   76.5303 H   0  0  0  0  0
   58.3876   88.3305   75.7236 H   0  0  0  0  0
   56.6740   88.0195   75.5901 H   0  0  0  0  0
   57.1290   85.6698   75.1156 H   0  0  0  0  0
   59.4821   85.2371   74.4224 H   0  0  0  0  0
   58.1891   85.7481   72.9602 H   0  0  0  0  0
   58.8890   87.9159   72.2318 H   0  0  0  0  0
   56.2653   88.0065   73.3969 H   0  0  0  0  0
   54.7267   86.6763   72.5999 H   0  0  0  0  0
   58.0365   87.6583   71.2298 H   0  0  0  0  0
   56.3857   88.1317   70.8962 H   0  0  0  0  0
   56.9844   86.1733   69.7421 H   0  0  0  0  0
  1  2  1  0  0  0
  1 18  2  0  0  0
  2  3  2  0  0  0
  2  4  1  0  0  0
  4  5  1  0  0  0
  5  6  2  0  0  0
  5  7  1  0  0  0
  7  8  2  0  0  0
  7 18  1  0  0  0
  8  9  1  0  0  0
  9 10  4  0  0  0
  9 16  4  0  0  0
 10 11  4  0  0  0
 11 12  1  0  0  0
 11 13  4  0  0  0
 13 14  1  0  0  0
 13 15  4  0  0  0
 15 16  4  0  0  0
 16 17  1  0  0  0
 17 18  1  0  0  0
 17 19  1  0  0  0
 19 20  1  0  0  0
 20 21  1  0  0  0
 20 22  1  0  0  0
 22 23  1  0  0  0
 22 24  1  0  0  0
 24 25  1  0  0  0
 24 26  1  0  0  0
 26 27  1  0  0  0
  4 28  1  0  0  0
 10 29  1  0  0  0
 12 30  1  0  0  0
 12 31  1  0  0  0
 12 32  1  0  0  0
 14 33  1  0  0  0
 14 34  1  0  0  0
 14 35  1  0  0  0
 15 36  1  0  0  0
 19 37  1  0  0  0
 19 38  1  0  0  0
 20 39  1  0  0  0
 21 40  1  0  0  0
 22 41  1  0  0  0
 23 42  1  0  0  0
 24 43  1  0  0  0
 25 44  1  0  0  0
 26 45  1  0  0  0
 26 46  1  0  0  0
 27 47  1  0  0  0
M  END
$$$$
