6g9d_ligand
  -I-interpret- 

 60 63  0  0  0  0  0  0  0  0999 V2000
   -1.0030    6.7350   48.4720 C   0  0  0  0  0
    0.3070    7.4420   48.8160 C   0  0  0  0  0
    0.0360    8.6250   49.7470 C   0  0  0  0  0
    2.1770    8.3700   47.3940 C   0  0  0  0  0
    2.5310    8.8020   45.9830 C   0  0  0  0  0
    4.6840   10.1100   45.5920 C   0  0  0  0  0
    6.0790    9.6350   45.2900 C   0  0  0  0  0
    7.2510   10.3380   45.1030 C   0  0  0  0  0
    8.4350    9.6650   44.8250 C   0  0  0  0  0
    8.4630    8.2750   44.6960 C   0  0  0  0  0
    7.2590    7.5730   44.8820 C   0  0  0  0  0
    6.0890    8.2560   45.1750 C   0  0  0  0  0
    9.7550    7.5830   44.4240 C   0  0  0  0  0
   11.8750    7.7090   43.4760 C   0  0  0  0  0
   12.4760    9.6590   42.0960 C   0  0  0  0  0
   13.7470   10.4720   41.8950 C   0  0  0  0  0
   13.4450   11.7210   41.0810 C   0  0  0  0  0
   11.6120   10.7100   39.9780 C   0  0  0  0  0
   11.7880    9.4070   40.7510 C   0  0  0  0  0
   10.1220    6.3150   44.9030 C   0  0  0  0  0
    1.2670    6.4570   49.4860 C   0  0  0  0  0
    0.9120    7.9450   47.5660 N   0  0  0  0  0
    3.0050    8.4120   48.3010 O   0  0  0  0  0
    3.9640    8.8500   45.7390 N   0  0  0  0  0
    4.7130    7.7600   45.4080 C   0  0  0  0  0
    4.2930    6.6110   45.3310 O   0  0  0  0  0
   10.6620    8.2830   43.7230 N   0  0  0  0  0
   12.7610    8.4120   42.7640 N   0  0  0  0  0
   12.8700   11.3880   39.8010 O   0  0  0  0  0
   12.2760    6.4910   43.9000 N   0  0  0  0  0
   11.3760    5.8010   44.6150 C   0  0  0  0  0
    9.0300    5.3570   45.8430 Cl  0  0  0  0  0
   -0.8003    5.9085   47.7909 H   0  0  0  0  0
   -1.4582    6.3517   49.3852 H   0  0  0  0  0
   -1.6818    7.4422   47.9953 H   0  0  0  0  0
   -0.4104    8.2622   50.6729 H   0  0  0  0  0
    0.9743    9.1332   49.9692 H   0  0  0  0  0
   -0.6484    9.3196   49.2600 H   0  0  0  0  0
    2.1381    9.8083   45.8380 H   0  0  0  0  0
    2.1042    8.0700   45.2973 H   0  0  0  0  0
    4.2702   10.7578   44.8192 H   0  0  0  0  0
    4.6251   10.7480   46.4738 H   0  0  0  0  0
    7.2486   11.4257   45.1735 H   0  0  0  0  0
    9.3580   10.2324   44.7056 H   0  0  0  0  0
    7.2457    6.4865   44.7954 H   0  0  0  0  0
   11.7999   10.2322   42.7304 H   0  0  0  0  0
   14.4790    9.8656   41.3616 H   0  0  0  0  0
   14.1415   10.7656   42.8677 H   0  0  0  0  0
   14.3782   12.2584   40.9122 H   0  0  0  0  0
   12.7300   12.3303   41.6339 H   0  0  0  0  0
   10.9439   11.3605   40.5424 H   0  0  0  0  0
   11.2021   10.4775   38.9951 H   0  0  0  0  0
   10.8053    8.9731   40.9355 H   0  0  0  0  0
   12.4069    8.7304   40.1617 H   0  0  0  0  0
    1.4577    5.6219   48.8119 H   0  0  0  0  0
    2.2050    6.9635   49.7134 H   0  0  0  0  0
    0.8199    6.0862   50.4083 H   0  0  0  0  0
    0.3063    7.9732   46.7458 H   0  0  0  0  0
   13.7076    8.0400   42.6872 H   0  0  0  0  0
   11.6381    4.8079   44.9799 H   0  0  0  0  0
  2  1  1  0  0  0
  2  3  1  0  0  0
  2 21  1  0  0  0
 22  2  1  0  0  0
  5  4  1  0  0  0
  4 22  1  0  0  0
  4 23  2  0  0  0
 24  5  1  0  0  0
  7  6  1  0  0  0
  6 24  1  0  0  0
  8  7  4  0  0  0
 12  7  4  0  0  0
  9  8  4  0  0  0
 10  9  4  0  0  0
 10 11  4  0  0  0
 13 10  1  0  0  0
 11 12  4  0  0  0
 12 25  1  0  0  0
 13 20  4  0  0  0
 27 13  4  0  0  0
 14 27  4  0  0  0
 28 14  1  0  0  0
 14 30  4  0  0  0
 15 16  1  0  0  0
 15 19  1  0  0  0
 15 28  1  0  0  0
 16 17  1  0  0  0
 17 29  1  0  0  0
 19 18  1  0  0  0
 18 29  1  0  0  0
 20 31  4  0  0  0
 20 32  1  0  0  0
 24 25  1  0  0  0
 25 26  2  0  0  0
 30 31  4  0  0  0
  1 33  1  0  0  0
  1 34  1  0  0  0
  1 35  1  0  0  0
  3 36  1  0  0  0
  3 37  1  0  0  0
  3 38  1  0  0  0
  5 39  1  0  0  0
  5 40  1  0  0  0
  6 41  1  0  0  0
  6 42  1  0  0  0
  8 43  1  0  0  0
  9 44  1  0  0  0
 11 45  1  0  0  0
 15 46  1  0  0  0
 16 47  1  0  0  0
 16 48  1  0  0  0
 17 49  1  0  0  0
 17 50  1  0  0  0
 18 51  1  0  0  0
 18 52  1  0  0  0
 19 53  1  0  0  0
 19 54  1  0  0  0
 21 55  1  0  0  0
 21 56  1  0  0  0
 21 57  1  0  0  0
 22 58  1  0  0  0
 28 59  1  0  0  0
 31 60  1  0  0  0
M  END
$$$$
