4wf6_ligand
  -I-interpret- 

 31 31  0  0  0  0  0  0  0  0999 V2000
   12.4750   18.5270   27.4220 C   0  0  0  0  0
   11.7440   18.0850   26.1880 C   0  0  0  0  0
   13.5020   19.3530   27.2560 N   0  0  0  0  0
   12.1270   18.1310   28.5210 O   0  0  0  0  0
   14.1970   19.7980   28.3760 O   0  0  0  0  0
   12.3740   16.8040   25.6540 C   0  0  0  0  0
   10.3320   17.8860   26.4680 N   0  0  0  0  0
    9.3020   19.0840   26.2030 S   0  0  0  0  0
    8.0640   18.5490   25.7090 O   0  0  0  0  0
    9.8400   19.9960   25.2340 O   0  0  0  0  0
    9.0260   19.8600   27.5700 C   0  0  0  0  0
    8.1040   19.3740   28.4910 C   0  0  0  0  0
    7.8750   20.0750   29.6730 C   0  0  0  0  0
    8.5580   21.2510   29.9280 C   0  0  0  0  0
    9.4760   21.7420   29.0080 C   0  0  0  0  0
    9.7050   21.0480   27.8260 C   0  0  0  0  0
    8.3280   21.9190   31.0700 F   0  0  0  0  0
    6.8850   19.5600   30.6840 C   0  0  0  0  0
   11.8253   18.8640   25.4300 H   0  0  0  0  0
   13.7768   19.6563   26.3217 H   0  0  0  0  0
   14.9060   20.3832   28.0996 H   0  0  0  0  0
   12.2699   16.0126   26.3962 H   0  0  0  0  0
   11.8702   16.5092   24.7335 H   0  0  0  0  0
   13.4309   16.9774   25.4517 H   0  0  0  0  0
    9.9999   16.9920   26.8298 H   0  0  0  0  0
    7.5633   18.4493   28.2890 H   0  0  0  0  0
   10.0143   22.6675   29.2124 H   0  0  0  0  0
   10.4179   21.4347   27.0977 H   0  0  0  0  0
    5.8988   19.4951   30.2244 H   0  0  0  0  0
    7.1949   18.5716   31.0232 H   0  0  0  0  0
    6.8472   20.2418   31.5336 H   0  0  0  0  0
  1  2  1  0  0  0
  1  3  1  0  0  0
  1  4  2  0  0  0
  2  6  1  0  0  0
  2  7  1  0  0  0
  3  5  1  0  0  0
  7  8  1  0  0  0
  8  9  2  0  0  0
  8 10  2  0  0  0
  8 11  1  0  0  0
 11 12  4  0  0  0
 11 16  4  0  0  0
 12 13  4  0  0  0
 13 14  4  0  0  0
 13 18  1  0  0  0
 14 15  4  0  0  0
 14 17  1  0  0  0
 15 16  4  0  0  0
  2 19  1  0  0  0
  3 20  1  0  0  0
  5 21  1  0  0  0
  6 22  1  0  0  0
  6 23  1  0  0  0
  6 24  1  0  0  0
  7 25  1  0  0  0
 12 26  1  0  0  0
 15 27  1  0  0  0
 16 28  1  0  0  0
 18 29  1  0  0  0
 18 30  1  0  0  0
 18 31  1  0  0  0
M  END
$$$$
