3tf6_ligand
  -I-interpret- 

 17 17  0  0  0  0  0  0  0  0999 V2000
   28.5090   82.0240   62.9500 C   0  0  0  0  0
   29.7559   81.9038   63.0852 O   0  0  0  0  0
   27.6670   80.8400   62.5360 C   0  0  0  0  0
   26.8420   80.9670   61.4410 C   0  0  0  0  0
   26.0460   79.9180   61.0470 C   0  0  0  0  0
   27.7040   79.6370   63.2390 C   0  0  0  0  0
   28.5320   79.5260   64.3250 O   0  0  0  0  0
   26.9120   78.5510   62.8370 C   0  0  0  0  0
   26.0830   78.7140   61.7320 C   0  0  0  0  0
   26.9390   77.3210   63.4940 O   0  0  0  0  0
   27.9609   83.1387   63.1614 O   0  0  0  0  0
   26.8200   81.9037   60.8840 H   0  0  0  0  0
   25.3817   80.0339   60.1906 H   0  0  0  0  0
   28.4481   78.6469   64.7014 H   0  0  0  0  0
   25.4559   77.8860   61.4015 H   0  0  0  0  0
   26.3282   76.7170   63.0654 H   0  0  0  0  0
   27.0151   83.0617   63.0160 H   0  0  0  0  0
  1  2  2  0  0  0
  1  3  1  0  0  0
  3  4  4  0  0  0
  3  6  4  0  0  0
  4  5  4  0  0  0
  5  9  4  0  0  0
  6  7  1  0  0  0
  6  8  4  0  0  0
  8  9  4  0  0  0
  8 10  1  0  0  0
  1 11  1  0  0  0
  4 12  1  0  0  0
  5 13  1  0  0  0
  7 14  1  0  0  0
  9 15  1  0  0  0
 10 16  1  0  0  0
 11 17  1  0  0  0
M  END
$$$$
