2l6j_ligand
  -I-interpret- 

 82 81  0  0  0  0  0  0  0  0999 V2000
   -3.1820    3.2310  -12.1860 N   0  3  0  0  0
   -1.8630    3.8760  -12.0590 C   0  0  0  0  0
   -1.2750    3.5140  -10.7090 C   0  0  0  0  0
   -1.8260    3.9060   -9.6840 O   0  0  0  0  0
   -1.9150    5.4020  -12.2330 C   0  0  0  0  0
   -2.2660    5.8260  -13.6630 C   0  0  0  0  0
   -4.0160    5.6850  -14.1100 S   0  0  0  0  0
   -3.9800    6.4900  -15.7340 C   0  0  0  0  0
   -0.1870    2.7440  -10.6990 N   0  0  0  0  0
    0.4100    2.1860   -9.4800 C   0  0  0  0  0
    1.7530    2.8420   -9.1410 C   0  0  0  0  0
    2.5090    3.2580  -10.0200 O   0  0  0  0  0
    0.5590    0.6560   -9.5540 C   0  0  0  0  0
   -0.7570   -0.1000   -9.7960 C   0  0  0  0  0
   -1.0930   -0.1810  -11.2870 C   0  0  0  0  0
   -0.4520   -0.9890  -12.0080 O   0  0  0  0  0
   -1.9490    0.5920  -11.7710 O   0  0  0  0  0
    2.0600    2.9110   -7.8480 N   0  0  0  0  0
    3.2710    3.5110   -7.2940 C   0  0  0  0  0
    3.6280    2.7930   -5.9900 C   0  0  0  0  0
    2.9650    3.0100   -4.9760 O   0  0  0  0  0
    2.9920    4.9990   -7.0330 C   0  0  0  0  0
    4.1310    5.7590   -6.3370 C   0  0  0  0  0
    3.6760    7.1780   -5.9820 C   0  0  0  0  0
    2.8760    7.3430   -5.0330 O   0  0  0  0  0
    4.0920    8.1370   -6.6740 O   0  0  0  0  0
    4.7000    2.0000   -6.0060 N   0  0  0  0  0
    5.2790    1.2920   -4.8490 C   0  0  0  0  0
    4.3830    0.1950   -4.2410 C   0  0  0  0  0
    3.1840    0.3590   -4.0110 O   0  0  0  0  0
    5.8350    2.3110   -3.8320 C   0  0  0  0  0
    6.3210    1.6690   -2.5420 C   0  0  0  0  0
    7.0360    3.0540   -4.4310 C   0  0  0  0  0
    4.9730   -0.9770   -3.9970 N   0  0  0  0  0
    4.2980   -2.2510   -3.6980 C   0  0  0  0  0
    3.7800   -2.3640   -2.2600 C   0  0  0  0  0
    2.5520   -2.5700   -2.0960 O   0  0  0  0  0
    5.2310   -3.4220   -4.0770 C   0  0  0  0  0
    5.4840   -3.5550   -5.5870 C   0  0  0  0  0
    6.6700   -3.7030   -5.9980 O   0  0  0  0  0
    4.4920   -3.5610   -6.3600 O   0  0  0  0  0
    4.5850   -2.2590   -1.3080 O   0  0  0  0  0
   -3.0801    2.2238  -12.0610 H   0  0  0  0  0
   -3.8103    3.6014  -11.4730 H   0  0  0  0  0
   -3.5653    3.4229  -13.1116 H   0  0  0  0  0
   -1.2308    3.5061  -12.8662 H   0  0  0  0  0
   -0.9263    5.7979  -12.0010 H   0  0  0  0  0
   -2.6909    5.7868  -11.5712 H   0  0  0  0  0
   -1.7206    5.1566  -14.3282 H   0  0  0  0  0
   -2.0082    6.8818  -13.7461 H   0  0  0  0  0
   -3.6293    7.5159  -15.6219 H   0  0  0  0  0
   -3.3055    5.9442  -16.3938 H   0  0  0  0  0
   -4.9836    6.4921  -16.1594 H   0  0  0  0  0
    0.2571    2.5298  -11.5919 H   0  0  0  0  0
   -0.2855    2.4143   -8.6724 H   0  0  0  0  0
    0.9447    0.3255   -8.5896 H   0  0  0  0  0
    1.2122    0.4391  -10.3992 H   0  0  0  0  0
   -1.5603    0.4356   -9.2902 H   0  0  0  0  0
   -0.6477   -1.1141   -9.4116 H   0  0  0  0  0
    0.1543   -1.4932  -11.4605 H   0  0  0  0  0
    1.3932    2.5110   -7.1879 H   0  0  0  0  0
    4.1080    3.4154   -7.9856 H   0  0  0  0  0
    2.1293    5.0462   -6.3684 H   0  0  0  0  0
    2.8485    5.4683   -8.0063 H   0  0  0  0  0
    4.9871    5.8152   -7.0093 H   0  0  0  0  0
    4.4069    5.2324   -5.4234 H   0  0  0  0  0
    4.6922    7.8078   -7.3470 H   0  0  0  0  0
    5.1642    1.8706   -6.9050 H   0  0  0  0  0
    6.1199    0.7046   -5.2176 H   0  0  0  0  0
    5.0046    2.9802   -3.6070 H   0  0  0  0  0
    5.4932    1.1453   -2.0640 H   0  0  0  0  0
    7.1184    0.9611   -2.7679 H   0  0  0  0  0
    6.6985    2.4421   -1.8727 H   0  0  0  0  0
    7.8171    2.3364   -4.6821 H   0  0  0  0  0
    6.7226    3.5819   -5.3317 H   0  0  0  0  0
    7.4186    3.7697   -3.7033 H   0  0  0  0  0
    5.9926   -0.9916   -4.0199 H   0  0  0  0  0
    3.3956   -2.2925   -4.3080 H   0  0  0  0  0
    2.1194   -2.6167   -2.9517 H   0  0  0  0  0
    4.7466   -4.3413   -3.7478 H   0  0  0  0  0
    6.1944   -3.2348   -3.6027 H   0  0  0  0  0
    7.2729   -3.6672   -5.2518 H   0  0  0  0  0
  1  2  1  0  0  0
  2  3  1  0  0  0
  2  5  1  0  0  0
  3  4  2  0  0  0
  3  9  1  0  0  0
  5  6  1  0  0  0
  6  7  1  0  0  0
  7  8  1  0  0  0
  9 10  1  0  0  0
 10 11  1  0  0  0
 10 13  1  0  0  0
 11 12  2  0  0  0
 11 18  1  0  0  0
 13 14  1  0  0  0
 14 15  1  0  0  0
 15 16  1  0  0  0
 15 17  2  0  0  0
 18 19  1  0  0  0
 19 20  1  0  0  0
 19 22  1  0  0  0
 20 21  2  0  0  0
 20 27  1  0  0  0
 22 23  1  0  0  0
 23 24  1  0  0  0
 24 25  2  0  0  0
 24 26  1  0  0  0
 27 28  1  0  0  0
 28 29  1  0  0  0
 28 31  1  0  0  0
 29 30  2  0  0  0
 29 34  1  0  0  0
 31 32  1  0  0  0
 31 33  1  0  0  0
 34 35  1  0  0  0
 35 36  1  0  0  0
 35 38  1  0  0  0
 36 37  1  0  0  0
 36 42  2  0  0  0
 38 39  1  0  0  0
 39 40  1  0  0  0
 39 41  2  0  0  0
  1 43  1  0  0  0
  1 44  1  0  0  0
  1 45  1  0  0  0
  2 46  1  0  0  0
  5 47  1  0  0  0
  5 48  1  0  0  0
  6 49  1  0  0  0
  6 50  1  0  0  0
  8 51  1  0  0  0
  8 52  1  0  0  0
  8 53  1  0  0  0
  9 54  1  0  0  0
 10 55  1  0  0  0
 13 56  1  0  0  0
 13 57  1  0  0  0
 14 58  1  0  0  0
 14 59  1  0  0  0
 16 60  1  0  0  0
 18 61  1  0  0  0
 19 62  1  0  0  0
 22 63  1  0  0  0
 22 64  1  0  0  0
 23 65  1  0  0  0
 23 66  1  0  0  0
 26 67  1  0  0  0
 27 68  1  0  0  0
 28 69  1  0  0  0
 31 70  1  0  0  0
 32 71  1  0  0  0
 32 72  1  0  0  0
 32 73  1  0  0  0
 33 74  1  0  0  0
 33 75  1  0  0  0
 33 76  1  0  0  0
 34 77  1  0  0  0
 35 78  1  0  0  0
 37 79  1  0  0  0
 38 80  1  0  0  0
 38 81  1  0  0  0
 40 82  1  0  0  0
M  END
$$$$
