### 
### Created by X-TOOL on Mon Sep 10 21:13:08 2018
### 

@<TRIPOS>MOLECULE
2l6j_ligand
   78    77     1     0     0
SMALL
GAST_HUCK


@<TRIPOS>ATOM
      1 N          -3.1820    3.2310  -12.1860 N.4       1 MET         0.2379
      2 CA         -1.8630    3.8760  -12.0590 C.3       1 MET         0.0658
      3 C          -1.2750    3.5140  -10.7090 C.2       1 MET         0.2267
      4 O          -1.8260    3.9060   -9.6840 O.2       1 MET        -0.3907
      5 CB         -1.9150    5.4020  -12.2330 C.3       1 MET         0.0168
      6 CG         -2.2660    5.8260  -13.6630 C.3       1 MET         0.0007
      7 SD         -4.0160    5.6850  -14.1100 S.3       1 MET        -0.1638
      8 CE         -3.9800    6.4900  -15.7340 C.3       1 MET        -0.0181
      9 N          -0.1870    2.7440  -10.6990 N.am      1 GLU        -0.2609
     10 CA          0.4100    2.1860   -9.4800 C.3       1 GLU         0.1326
     11 C           1.7530    2.8420   -9.1410 C.2       1 GLU         0.2040
     12 O           2.5090    3.2580  -10.0200 O.2       1 GLU        -0.3944
     13 CB          0.5590    0.6560   -9.5540 C.3       1 GLU        -0.0008
     14 CG         -0.7570   -0.1000   -9.7960 C.3       1 GLU         0.0044
     15 CD         -1.0930   -0.1810  -11.2870 C.2       1 GLU         0.0350
     16 OE1        -0.4520   -0.9890  -12.0080 O.co2     1 GLU        -0.5690
     17 OE2        -1.9490    0.5920  -11.7710 O.co2     1 GLU        -0.5690
     18 N           2.0600    2.9110   -7.8480 N.am      1 GLU        -0.2636
     19 CA          3.2710    3.5110   -7.2940 C.3       1 GLU         0.1325
     20 C           3.6280    2.7930   -5.9900 C.2       1 GLU         0.2040
     21 O           2.9650    3.0100   -4.9760 O.2       1 GLU        -0.3944
     22 CB          2.9920    4.9990   -7.0330 C.3       1 GLU        -0.0008
     23 CG          4.1310    5.7590   -6.3370 C.3       1 GLU         0.0044
     24 CD          3.6760    7.1780   -5.9820 C.2       1 GLU         0.0350
     25 OE1         2.8760    7.3430   -5.0330 O.co2     1 GLU        -0.5690
     26 OE2         4.0920    8.1370   -6.6740 O.co2     1 GLU        -0.5690
     27 N           4.7000    2.0000   -6.0060 N.am      1 VAL        -0.2635
     28 CA          5.2790    1.2920   -4.8490 C.3       1 VAL         0.1332
     29 C           4.3830    0.1950   -4.2410 C.2       1 VAL         0.2037
     30 O           3.1840    0.3590   -4.0110 O.2       1 VAL        -0.3944
     31 CB          5.8350    2.3110   -3.8320 C.3       1 VAL        -0.0063
     32 CG1         6.3210    1.6690   -2.5420 C.3       1 VAL        -0.0584
     33 CG2         7.0360    3.0540   -4.4310 C.3       1 VAL        -0.0584
     34 N           4.9730   -0.9770   -3.9970 N.am      1 ASP        -0.2679
     35 CA          4.2980   -2.2510   -3.6980 C.3       1 ASP         0.1057
     36 C           3.7800   -2.3640   -2.2600 C.2       1 ASP         0.0618
     37 O           2.5520   -2.5700   -2.0960 O.co2     1 ASP        -0.5665
     38 CB          5.2310   -3.4220   -4.0770 C.3       1 ASP         0.0351
     39 CG          5.4840   -3.5550   -5.5870 C.2       1 ASP         0.0387
     40 OD1         6.6700   -3.7030   -5.9980 O.co2     1 ASP        -0.5688
     41 OD2         4.4920   -3.5610   -6.3600 O.co2     1 ASP        -0.5688
     42 OXT         4.5850   -2.2590   -1.3080 O.co2     1 ASP        -0.5665
     43 H          -3.0801    2.2238  -12.0610 H         1 MET         0.2015
     44 H          -3.8103    3.6014  -11.4730 H         1 MET         0.2015
     45 H          -3.5653    3.4229  -13.1116 H         1 MET         0.2015
     46 H          -1.2308    3.5061  -12.8662 H         1 MET         0.1098
     47 H          -0.9263    5.7979  -12.0010 H         1 MET         0.0354
     48 H          -2.6909    5.7868  -11.5712 H         1 MET         0.0354
     49 H          -1.7206    5.1566  -14.3282 H         1 MET         0.0380
     50 H          -2.0082    6.8818  -13.7461 H         1 MET         0.0380
     51 H          -3.6293    7.5159  -15.6219 H         1 MET         0.0340
     52 H          -3.3055    5.9442  -16.3938 H         1 MET         0.0340
     53 H          -4.9836    6.4921  -16.1594 H         1 MET         0.0340
     54 H           0.2571    2.5298  -11.5919 H         1 GLU         0.1885
     55 H          -0.2855    2.4143   -8.6724 H         1 GLU         0.0801
     56 H           0.9447    0.3255   -8.5896 H         1 GLU         0.0330
     57 H           1.2122    0.4391  -10.3992 H         1 GLU         0.0330
     58 H          -1.5603    0.4356   -9.2902 H         1 GLU         0.0433
     59 H          -0.6477   -1.1141   -9.4116 H         1 GLU         0.0433
     60 H           1.3932    2.5110   -7.1879 H         1 GLU         0.1883
     61 H           4.1080    3.4154   -7.9856 H         1 GLU         0.0801
     62 H           2.1293    5.0462   -6.3684 H         1 GLU         0.0330
     63 H           2.8485    5.4683   -8.0063 H         1 GLU         0.0330
     64 H           4.9871    5.8152   -7.0093 H         1 GLU         0.0433
     65 H           4.4069    5.2324   -5.4234 H         1 GLU         0.0433
     66 H           5.1642    1.8706   -6.9050 H         1 VAL         0.1883
     67 H           6.1199    0.7046   -5.2176 H         1 VAL         0.0802
     68 H           5.0046    2.9802   -3.6070 H         1 VAL         0.0343
     69 H           5.4932    1.1453   -2.0640 H         1 VAL         0.0234
     70 H           7.1184    0.9611   -2.7679 H         1 VAL         0.0234
     71 H           6.6985    2.4421   -1.8727 H         1 VAL         0.0234
     72 H           7.8171    2.3364   -4.6821 H         1 VAL         0.0234
     73 H           6.7226    3.5819   -5.3317 H         1 VAL         0.0234
     74 H           7.4186    3.7697   -3.7033 H         1 VAL         0.0234
     75 H           5.9926   -0.9916   -4.0199 H         1 ASP         0.1876
     76 H           3.3956   -2.2925   -4.3080 H         1 ASP         0.0745
     77 H           4.7466   -4.3413   -3.7478 H         1 ASP         0.0471
     78 H           6.1944   -3.2348   -3.6027 H         1 ASP         0.0471
@<TRIPOS>BOND
     1    1    2 1  
     2    2    3 1  
     3    2    5 1  
     4    3    4 2  
     5    3    9 am 
     6    5    6 1  
     7    6    7 1  
     8    7    8 1  
     9    9   10 1  
    10   10   11 1  
    11   10   13 1  
    12   11   12 2  
    13   11   18 am 
    14   13   14 1  
    15   14   15 1  
    16   15   16 ar 
    17   15   17 ar 
    18   18   19 1  
    19   19   20 1  
    20   19   22 1  
    21   20   21 2  
    22   20   27 am 
    23   22   23 1  
    24   23   24 1  
    25   24   25 ar 
    26   24   26 ar 
    27   27   28 1  
    28   28   29 1  
    29   28   31 1  
    30   29   30 2  
    31   29   34 am 
    32   31   32 1  
    33   31   33 1  
    34   34   35 1  
    35   35   36 1  
    36   35   38 1  
    37   36   37 ar 
    38   36   42 ar 
    39   38   39 1  
    40   39   40 ar 
    41   39   41 ar 
    42    1   43 1  
    43    1   44 1  
    44    1   45 1  
    45    2   46 1  
    46    5   47 1  
    47    5   48 1  
    48    6   49 1  
    49    6   50 1  
    50    8   51 1  
    51    8   52 1  
    52    8   53 1  
    53    9   54 1  
    54   10   55 1  
    55   13   56 1  
    56   13   57 1  
    57   14   58 1  
    58   14   59 1  
    59   18   60 1  
    60   19   61 1  
    61   22   62 1  
    62   22   63 1  
    63   23   64 1  
    64   23   65 1  
    65   27   66 1  
    66   28   67 1  
    67   31   68 1  
    68   32   69 1  
    69   32   70 1  
    70   32   71 1  
    71   33   72 1  
    72   33   73 1  
    73   33   74 1  
    74   34   75 1  
    75   35   76 1  
    76   38   77 1  
    77   38   78 1  
@<TRIPOS>SUBSTRUCTURE
     1 MET         1

