3mv5_ligand
  -I-interpret- 

 31 33  0  0  0  0  0  0  0  0999 V2000
    7.7030    2.9450   19.0800 C   0  0  0  0  0
    8.3500    4.1420   18.4140 C   0  0  0  0  0
    7.1770    4.8100   17.6990 C   0  0  0  0  0
    6.3720    3.6650   17.2890 N   0  0  0  0  0
    6.6440    2.4790   18.0890 C   0  0  0  0  0
    5.0950    3.9220   16.7430 C   0  0  0  0  0
    4.8810    5.2460   16.5710 N   0  0  0  0  0
    3.7070    5.7080   16.0980 C   0  0  0  0  0
    2.6930    4.8490   15.7390 N   0  0  0  0  0
    4.0540    3.0000   16.3770 C   0  0  0  0  0
    2.8290    3.5150   15.8680 C   0  0  0  0  0
    1.9170    2.5540   15.5790 N   0  0  0  0  0
    2.4280    1.3250   15.8460 C   0  0  0  0  0
    3.7330    1.5320   16.3170 C   0  0  0  0  0
    4.5770    0.3460   16.7110 C   0  0  0  0  0
    7.0470    3.3570   20.3150 N   0  3  0  0  0
    8.4288    2.1698   19.3256 H   0  0  0  0  0
    9.1566    3.8642   17.7355 H   0  0  0  0  0
    8.8459    4.8044   19.1235 H   0  0  0  0  0
    7.4851    5.4393   16.8641 H   0  0  0  0  0
    6.6335    5.5131   18.3302 H   0  0  0  0  0
    5.7507    2.0983   18.5842 H   0  0  0  0  0
    6.9831    1.6385   17.4835 H   0  0  0  0  0
    3.5572    6.7830   15.9977 H   0  0  0  0  0
    1.9240    0.3669   15.7194 H   0  0  0  0  0
    5.4914    0.3393   16.1178 H   0  0  0  0  0
    4.8292    0.4166   17.7691 H   0  0  0  0  0
    4.0182   -0.5722   16.5299 H   0  0  0  0  0
    7.7503    3.6706   20.9839 H   0  0  0  0  0
    6.4003    4.1205   20.1167 H   0  0  0  0  0
    6.5330    2.5672   20.7054 H   0  0  0  0  0
  1  2  1  0  0  0
  1  5  1  0  0  0
  1 16  1  0  0  0
  2  3  1  0  0  0
  3  4  1  0  0  0
  4  5  1  0  0  0
  4  6  1  0  0  0
  6  7  4  0  0  0
  6 10  4  0  0  0
  7  8  4  0  0  0
  8  9  4  0  0  0
  9 11  4  0  0  0
 10 11  4  0  0  0
 10 14  4  0  0  0
 11 12  4  0  0  0
 12 13  4  0  0  0
 13 14  4  0  0  0
 14 15  1  0  0  0
  1 17  1  0  0  0
  2 18  1  0  0  0
  2 19  1  0  0  0
  3 20  1  0  0  0
  3 21  1  0  0  0
  5 22  1  0  0  0
  5 23  1  0  0  0
  8 24  1  0  0  0
 13 25  1  0  0  0
 15 26  1  0  0  0
 15 27  1  0  0  0
 15 28  1  0  0  0
 16 29  1  0  0  0
 16 30  1  0  0  0
 16 31  1  0  0  0
M  END
$$$$
