6hmr_ligand
  -I-interpret- 

 67 71  0  0  0  0  0  0  0  0999 V2000
   -0.0920    6.4500   13.5010 C   0  0  0  0  0
    1.5340    3.2050   16.5930 C   0  0  0  0  0
    2.9060    3.2830   18.5250 C   0  0  0  0  0
    3.4310    4.0520   19.7230 C   0  0  0  0  0
    4.6460    3.8340   20.4360 C   0  0  0  0  0
    3.5850    5.6150   21.6050 C   0  0  0  0  0
    2.1860    8.3670   23.6120 C   0  0  0  0  0
   -1.9750    4.8740    8.8940 C   0  0  0  0  0
   -2.0520    6.8900   10.2320 C   0  0  0  0  0
   -2.5620    8.1640   10.4060 C   0  0  0  0  0
   -2.2740    8.8840   11.5550 C   0  0  0  0  0
   -1.4800    8.3240   12.5490 C   0  0  0  0  0
   -0.9720   10.4150   13.5670 C   0  0  0  0  0
   -0.9770    7.0450   12.3950 C   0  0  0  0  0
   -0.8110    5.5970   14.5390 C   0  0  0  0  0
    0.1320    5.1560   15.6780 C   0  0  0  0  0
    2.0440    3.9210   17.6610 C   0  0  0  0  0
    3.2210    1.9530   18.3090 C   0  0  0  0  0
    2.6760    1.3060   17.2230 C   0  0  0  0  0
    1.0750    9.2010   23.6160 C   0  0  0  0  0
    0.9200   10.1500   24.6230 C   0  0  0  0  0
    1.8630   10.2650   25.6280 C   0  0  0  0  0
    2.9680    9.4350   25.6270 C   0  0  0  0  0
    3.1260    8.4890   24.6250 C   0  0  0  0  0
    5.7890    2.8730   20.1350 C   0  0  0  0  0
    6.3750    2.1060   21.1150 C   0  0  0  0  0
    7.4330    1.2790   20.8080 C   0  0  0  0  0
    7.9490    1.2540   19.5220 C   0  0  0  0  0
    7.3800    2.0390   18.5440 C   0  0  0  0  0
    6.3120    2.8610   18.8500 C   0  0  0  0  0
   -1.2550    6.3290   11.2310 C   0  0  0  0  0
    8.9950    0.4460   19.2010 F   0  0  0  0  0
    0.6410    3.8010   15.6350 N   0  0  0  0  0
    1.8540    1.9440   16.4080 N   0  0  0  0  0
    4.7210    4.8010   21.5410 N   0  0  0  0  0
    3.3590    6.6560   22.5950 N   0  0  0  0  0
    2.3610    7.3530   22.5820 N   0  0  0  0  0
   -2.3750    6.2170    9.0380 O   0  0  0  0  0
   -1.1880    9.0370   13.7240 O   0  0  0  0  0
    0.4340    5.9040   16.5490 O   0  0  0  0  0
    2.5530    5.2290   20.4060 S   0  0  0  0  0
    0.3363    7.2949   14.0403 H   0  0  0  0  0
    0.6218    5.7931   13.0039 H   0  0  0  0  0
   -0.8892    4.8100    8.9654 H   0  0  0  0  0
   -2.4283    4.2746    9.6835 H   0  0  0  0  0
   -2.2991    4.5019    7.9221 H   0  0  0  0  0
   -3.1942    8.6044    9.6350 H   0  0  0  0  0
   -2.6710    9.8915   11.6793 H   0  0  0  0  0
   -0.1280   10.5751   12.8961 H   0  0  0  0  0
   -1.8653   10.8758   13.1454 H   0  0  0  0  0
   -0.7556   10.8605   14.5380 H   0  0  0  0  0
   -1.1883    4.7026   14.0432 H   0  0  0  0  0
   -1.6142    6.1927   14.9727 H   0  0  0  0  0
    1.7703    4.9648   17.8150 H   0  0  0  0  0
    3.8905    1.4256   18.9885 H   0  0  0  0  0
    2.9238    0.2615   17.0341 H   0  0  0  0  0
    0.3244    9.1124   22.8306 H   0  0  0  0  0
    0.0499   10.8065   24.6192 H   0  0  0  0  0
    1.7354   11.0064   26.4168 H   0  0  0  0  0
    3.7163    9.5239   26.4146 H   0  0  0  0  0
    3.9977    7.8347   24.6336 H   0  0  0  0  0
    6.0010    2.1528   22.1378 H   0  0  0  0  0
    7.8659    0.6420   21.5793 H   0  0  0  0  0
    7.7724    2.0120   17.5274 H   0  0  0  0  0
    5.8799    3.5009   18.0806 H   0  0  0  0  0
   -0.8478    5.3263   11.1008 H   0  0  0  0  0
    0.3394    3.2164   14.8554 H   0  0  0  0  0
  1 14  1  0  0  0
 15  1  1  0  0  0
 17  2  4  0  0  0
  2 33  1  0  0  0
  2 34  4  0  0  0
  4  3  1  0  0  0
  3 17  4  0  0  0
  3 18  4  0  0  0
  4  5  4  0  0  0
 41  4  4  0  0  0
  5 25  1  0  0  0
 35  5  4  0  0  0
  6 35  4  0  0  0
 36  6  1  0  0  0
  6 41  4  0  0  0
  7 20  4  0  0  0
  7 24  4  0  0  0
 37  7  1  0  0  0
 38  8  1  0  0  0
  9 10  4  0  0  0
 31  9  4  0  0  0
  9 38  1  0  0  0
 11 10  4  0  0  0
 12 11  4  0  0  0
 14 12  4  0  0  0
 12 39  1  0  0  0
 39 13  1  0  0  0
 14 31  4  0  0  0
 16 15  1  0  0  0
 33 16  1  0  0  0
 16 40  2  0  0  0
 18 19  4  0  0  0
 19 34  4  0  0  0
 20 21  4  0  0  0
 21 22  4  0  0  0
 23 22  4  0  0  0
 24 23  4  0  0  0
 25 26  4  0  0  0
 25 30  4  0  0  0
 26 27  4  0  0  0
 27 28  4  0  0  0
 29 28  4  0  0  0
 28 32  1  0  0  0
 30 29  4  0  0  0
 36 37  2  0  0  0
  1 42  1  0  0  0
  1 43  1  0  0  0
  8 44  1  0  0  0
  8 45  1  0  0  0
  8 46  1  0  0  0
 10 47  1  0  0  0
 11 48  1  0  0  0
 13 49  1  0  0  0
 13 50  1  0  0  0
 13 51  1  0  0  0
 15 52  1  0  0  0
 15 53  1  0  0  0
 17 54  1  0  0  0
 18 55  1  0  0  0
 19 56  1  0  0  0
 20 57  1  0  0  0
 21 58  1  0  0  0
 22 59  1  0  0  0
 23 60  1  0  0  0
 24 61  1  0  0  0
 26 62  1  0  0  0
 27 63  1  0  0  0
 29 64  1  0  0  0
 30 65  1  0  0  0
 31 66  1  0  0  0
 33 67  1  0  0  0
M  END
$$$$
