3l2y_ligand
  -I-interpret- 

 17 16  0  0  0  0  0  0  0  0999 V2000
 -165.3250   42.5510    0.4830 C   0  0  0  0  0
 -163.8500   42.4730    0.2590 C   0  0  0  0  0
 -167.9600   43.1100    1.0950 O   0  0  0  0  0
 -167.7340   42.2750    3.3010 O   0  0  0  0  0
 -168.0400   40.7100    1.4040 O   0  0  0  0  0
 -165.8650   42.0230    1.6880 O   0  0  0  0  0
 -163.3100   41.2380   -0.3420 N   0  3  0  0  0
 -167.4310   41.9720    1.8680 P   0  0  0  0  0
 -165.7632   41.9464   -0.3111 H   0  0  0  0  0
 -165.5491   43.6172    0.5169 H   0  0  0  0  0
 -163.4014   42.5344    1.2505 H   0  0  0  0  0
 -163.6212   43.2668   -0.4521 H   0  0  0  0  0
 -167.4086   41.5607    3.8537 H   0  0  0  0  0
 -167.6867   39.9785    1.9155 H   0  0  0  0  0
 -162.2979   41.3217   -0.4367 H   0  0  0  0  0
 -163.5320   40.4439    0.2584 H   0  0  0  0  0
 -163.7283   41.0978   -1.2617 H   0  0  0  0  0
  1  2  1  0  0  0
  6  1  1  0  0  0
  2  7  1  0  0  0
  8  3  2  0  0  0
  8  4  1  0  0  0
  8  5  1  0  0  0
  6  8  1  0  0  0
  1  9  1  0  0  0
  1 10  1  0  0  0
  2 11  1  0  0  0
  2 12  1  0  0  0
  4 13  1  0  0  0
  5 14  1  0  0  0
  7 15  1  0  0  0
  7 16  1  0  0  0
  7 17  1  0  0  0
M  END
$$$$
