### 
### Created by X-TOOL on Mon Sep 10 21:13:04 2018
### 

@<TRIPOS>MOLECULE
3l2y_ligand
   15    14     1     0     0
SMALL
GAST_HUCK


@<TRIPOS>ATOM
      1 CA       -165.3250   42.5510    0.4830 C.3       1 OPE         0.1179
      2 CB       -163.8500   42.4730    0.2590 C.3       1 OPE        -0.0069
      3 O1       -167.9600   43.1100    1.0950 O.co2     1 OPE        -0.5537
      4 O2       -167.7340   42.2750    3.3010 O.co2     1 OPE        -0.5537
      5 O3       -168.0400   40.7100    1.4040 O.co2     1 OPE        -0.5537
      6 O4       -165.8650   42.0230    1.6880 O.3       1 OPE        -0.2708
      7 N        -163.3100   41.2380   -0.3420 N.4       1 OPE         0.2204
      8 P        -167.4310   41.9720    1.8680 P.3       1 OPE         0.2009
      9 H        -165.7632   41.9464   -0.3111 H         1 OPE         0.0666
     10 H        -165.5491   43.6172    0.5169 H         1 OPE         0.0666
     11 H        -163.4014   42.5344    1.2505 H         1 OPE         0.0839
     12 H        -163.6212   43.2668   -0.4521 H         1 OPE         0.0839
     13 H        -162.2979   41.3217   -0.4367 H         1 OPE         0.1995
     14 H        -163.5320   40.4439    0.2584 H         1 OPE         0.1995
     15 H        -163.7283   41.0978   -1.2617 H         1 OPE         0.1995
@<TRIPOS>BOND
     1    1    2 1  
     2    6    1 1  
     3    2    7 1  
     4    8    3 ar 
     5    8    4 ar 
     6    8    5 ar 
     7    6    8 1  
     8    1    9 1  
     9    1   10 1  
    10    2   11 1  
    11    2   12 1  
    12    7   13 1  
    13    7   14 1  
    14    7   15 1  
@<TRIPOS>SUBSTRUCTURE
     1 OPE         1

