3nzk_ligand
  -I-interpret- 

 60 62  0  0  0  0  0  0  0  0999 V2000
   -0.0910  -19.6980  -15.0970 C   0  0  0  0  0
   -0.8190  -20.3800  -13.9420 C   0  0  0  0  0
   -2.1430  -21.6730  -11.7320 C   0  0  0  0  0
   -2.8030  -22.2980  -10.6540 C   0  0  0  0  0
    1.9730  -16.1540  -13.8630 O   0  0  0  0  0
   -3.3700  -22.8340   -9.7300 C   0  0  0  0  0
   -4.0440  -23.3770   -8.6020 C   0  0  0  0  0
   -8.7250  -23.7990   -3.1500 C   0  0  0  0  0
   -5.4430  -24.3660   -6.2780 C   0  0  0  0  0
   -6.1670  -24.8220   -5.1310 C   0  0  0  0  0
   -8.3590  -25.0610   -4.0190 C   0  0  0  0  0
   -7.5580  -22.8590   -2.8100 C   0  0  0  0  0
   -9.5460  -25.8140   -4.6430 C   0  0  0  0  0
    1.8080  -16.4100  -15.2610 C   0  0  0  0  0
    0.7680  -16.4410  -13.1590 C   0  0  0  0  0
    1.4410  -17.9080  -15.4910 C   0  0  0  0  0
    0.5330  -17.9510  -13.3100 C   0  0  0  0  0
    0.2410  -18.2770  -14.7240 N   0  3  0  0  0
   -0.1260  -21.3960  -13.1790 C   0  0  0  0  0
   -2.1800  -20.0090  -13.6020 C   0  0  0  0  0
   -0.7910  -22.0400  -12.0690 C   0  0  0  0  0
   -2.8450  -20.6600  -12.4900 C   0  0  0  0  0
   -5.4830  -23.3180   -8.5620 C   0  0  0  0  0
   -3.2920  -23.9150   -7.4930 C   0  0  0  0  0
   -6.1800  -23.8040   -7.4060 C   0  0  0  0  0
   -3.9790  -24.4190   -6.3240 C   0  0  0  0  0
   -5.5540  -25.2220   -4.1320 O   0  0  0  0  0
   -7.4790  -24.6370   -5.1200 N   0  0  0  0  0
   -9.6690  -23.0000   -3.8650 O   0  0  0  0  0
   -9.7130  -27.0510   -4.2510 N   0  0  0  0  0
  -10.4490  -25.1740   -5.1430 O   0  0  0  0  0
  -10.8340  -27.6990   -4.5260 O   0  0  0  0  0
   -0.7331  -19.6984  -15.9778 H   0  0  0  0  0
    0.8308  -20.2388  -15.3111 H   0  0  0  0  0
   -9.0978  -24.2157   -2.2143 H   0  0  0  0  0
   -7.8889  -25.7549   -3.3221 H   0  0  0  0  0
   -6.8029  -23.4081   -2.2475 H   0  0  0  0  0
   -7.1198  -22.4775   -3.7323 H   0  0  0  0  0
   -7.9263  -22.0269   -2.2099 H   0  0  0  0  0
    2.7410  -16.1865  -15.7784 H   0  0  0  0  0
    1.0059  -15.7814  -15.6478 H   0  0  0  0  0
   -0.0685  -15.8708  -13.5630 H   0  0  0  0  0
    0.8494  -16.1590  -12.1093 H   0  0  0  0  0
    2.2738  -18.5283  -15.1596 H   0  0  0  0  0
    1.2407  -18.0615  -16.5514 H   0  0  0  0  0
   -0.3140  -18.2465  -12.6908 H   0  0  0  0  0
    1.4282  -18.4872  -12.9951 H   0  0  0  0  0
   -0.6178  -17.7651  -14.9259 H   0  0  0  0  0
    0.8947  -21.6748  -13.4408 H   0  0  0  0  0
   -2.6999  -19.2447  -14.1797 H   0  0  0  0  0
   -0.2709  -22.8016  -11.4881 H   0  0  0  0  0
   -3.8672  -20.3880  -12.2268 H   0  0  0  0  0
   -6.0386  -22.9067   -9.4047 H   0  0  0  0  0
   -2.2032  -23.9415   -7.5368 H   0  0  0  0  0
   -7.2682  -23.7532   -7.3696 H   0  0  0  0  0
   -3.4151  -24.8329   -5.4880 H   0  0  0  0  0
   -7.9046  -24.1730   -5.9225 H   0  0  0  0  0
   -9.8962  -22.2288   -3.3403 H   0  0  0  0  0
   -8.9729  -27.5202   -3.7289 H   0  0  0  0  0
  -10.7852  -28.5876   -4.1660 H   0  0  0  0  0
  2  1  1  0  0  0
  1 18  1  0  0  0
 19  2  4  0  0  0
 20  2  4  0  0  0
  4  3  1  0  0  0
  3 21  4  0  0  0
  3 22  4  0  0  0
  6  4  3  0  0  0
 14  5  1  0  0  0
 15  5  1  0  0  0
  7  6  1  0  0  0
 23  7  4  0  0  0
  7 24  4  0  0  0
 11  8  1  0  0  0
  8 12  1  0  0  0
  8 29  1  0  0  0
  9 10  1  0  0  0
 25  9  4  0  0  0
  9 26  4  0  0  0
 10 27  2  0  0  0
 10 28  1  0  0  0
 11 13  1  0  0  0
 28 11  1  0  0  0
 13 30  1  0  0  0
 13 31  2  0  0  0
 16 14  1  0  0  0
 17 15  1  0  0  0
 18 16  1  0  0  0
 18 17  1  0  0  0
 21 19  4  0  0  0
 22 20  4  0  0  0
 23 25  4  0  0  0
 24 26  4  0  0  0
 30 32  1  0  0  0
  1 33  1  0  0  0
  1 34  1  0  0  0
  8 35  1  0  0  0
 11 36  1  0  0  0
 12 37  1  0  0  0
 12 38  1  0  0  0
 12 39  1  0  0  0
 14 40  1  0  0  0
 14 41  1  0  0  0
 15 42  1  0  0  0
 15 43  1  0  0  0
 16 44  1  0  0  0
 16 45  1  0  0  0
 17 46  1  0  0  0
 17 47  1  0  0  0
 18 48  1  0  0  0
 19 49  1  0  0  0
 20 50  1  0  0  0
 21 51  1  0  0  0
 22 52  1  0  0  0
 23 53  1  0  0  0
 24 54  1  0  0  0
 25 55  1  0  0  0
 26 56  1  0  0  0
 28 57  1  0  0  0
 29 58  1  0  0  0
 30 59  1  0  0  0
 32 60  1  0  0  0
M  END
$$$$
