4der_ligand
  -I-interpret- 

 30 32  0  0  0  0  0  0  0  0999 V2000
   21.3330   43.7480   40.2840 C   0  0  0  0  0
   21.3530   43.7550   41.6360 C   0  0  0  0  0
   21.5660   42.5640   42.2960 C   0  0  0  0  0
   21.5830   42.5640   43.6220 O   0  0  0  0  0
   21.7630   41.3710   41.6380 C   0  0  0  0  0
   21.7480   41.3740   40.2870 C   0  0  0  0  0
   21.5350   42.5590   39.6120 C   0  0  0  0  0
   21.5140   42.5330   38.2550 C   0  0  0  0  0
   22.5040   43.1280   37.5660 O   0  0  0  0  0
   20.4750   41.8780   37.6310 C   0  0  0  0  0
   20.4370   41.7810   36.2740 C   0  0  0  0  0
   19.5170   41.1780   35.7260 O   0  0  0  0  0
   21.4160   42.4240   35.5700 C   0  0  0  0  0
   22.4160   43.0940   36.2330 C   0  0  0  0  0
   23.3890   43.7610   35.5380 C   0  0  0  0  0
   23.3350   43.7410   34.1650 C   0  0  0  0  0
   24.2980   44.3760   33.5140 O   0  0  0  0  0
   22.3280   43.0680   33.4920 C   0  0  0  0  0
   21.3640   42.4100   34.2050 C   0  0  0  0  0
   20.3590   41.7390   33.6180 O   0  0  0  0  0
   21.1593   44.6710   39.7307 H   0  0  0  0  0
   21.2041   44.6812   42.1911 H   0  0  0  0  0
   21.7403   41.6716   43.9389 H   0  0  0  0  0
   21.9270   40.4473   42.1929 H   0  0  0  0  0
   21.9030   40.4475   39.7342 H   0  0  0  0  0
   19.6781   41.4345   38.2280 H   0  0  0  0  0
   24.1846   44.2932   36.0594 H   0  0  0  0  0
   24.1530   44.2919   32.5687 H   0  0  0  0  0
   22.3043   43.0630   32.4023 H   0  0  0  0  0
   20.4423   41.8102   32.6643 H   0  0  0  0  0
  1  2  4  0  0  0
  1  7  4  0  0  0
  2  3  4  0  0  0
  3  4  1  0  0  0
  3  5  4  0  0  0
  5  6  4  0  0  0
  6  7  4  0  0  0
  7  8  1  0  0  0
  8  9  1  0  0  0
  8 10  2  0  0  0
  9 14  1  0  0  0
 10 11  1  0  0  0
 11 12  2  0  0  0
 11 13  1  0  0  0
 13 14  4  0  0  0
 13 19  4  0  0  0
 14 15  4  0  0  0
 15 16  4  0  0  0
 16 17  1  0  0  0
 16 18  4  0  0  0
 18 19  4  0  0  0
 19 20  1  0  0  0
  1 21  1  0  0  0
  2 22  1  0  0  0
  4 23  1  0  0  0
  5 24  1  0  0  0
  6 25  1  0  0  0
 10 26  1  0  0  0
 15 27  1  0  0  0
 17 28  1  0  0  0
 18 29  1  0  0  0
 20 30  1  0  0  0
M  END
$$$$
