4axa_ligand
  -I-interpret- 

 38 40  0  0  0  0  0  0  0  0999 V2000
   10.3670    7.2050    3.8540 N   0  3  0  0  0
   11.0950    8.1630    2.9800 C   0  0  0  0  0
   11.4510   10.5790    2.2470 C   0  0  0  0  0
   11.8940   11.8410    2.6190 C   0  0  0  0  0
   12.4950   12.6720    1.7070 C   0  0  0  0  0
   12.6610   12.2550    0.4180 C   0  0  0  0  0
   11.2700    9.9320    4.5830 O   0  0  0  0  0
   13.4240   13.3150   -0.7320 Cl  0  0  0  0  0
   12.2360   11.0150    0.0160 C   0  0  0  0  0
   11.6300   10.1750    0.9290 C   0  0  0  0  0
    9.2450    9.7410    3.2550 C   0  0  0  0  0
    8.5300    9.4390    2.1050 C   0  0  0  0  0
    7.1470    9.5100    2.0910 C   0  0  0  0  0
    6.4360    9.8880    3.2290 C   0  0  0  0  0
    7.1570   10.1890    4.3810 C   0  0  0  0  0
    8.5360   10.1170    4.3920 C   0  0  0  0  0
    4.9570    9.9600    3.2070 C   0  0  0  0  0
    4.1100   10.0260    4.3000 C   0  0  0  0  0
    2.8350   10.0770    3.9340 N   0  0  0  0  0
    2.8710   10.0410    2.5840 N   0  0  0  0  0
    4.1250    9.9700    2.1200 C   0  0  0  0  0
   10.7820    9.6600    3.2710 C   0  0  0  0  0
   10.6258    6.2514    3.6008 H   0  0  0  0  0
   10.6154    7.3788    4.8279 H   0  0  0  0  0
    9.3622    7.3301    3.7306 H   0  0  0  0  0
   10.7828    7.9632    1.9549 H   0  0  0  0  0
   12.1599    8.0168    3.1607 H   0  0  0  0  0
   11.7629   12.1759    3.6479 H   0  0  0  0  0
   12.8383   13.6609    2.0108 H   0  0  0  0  0
   12.2286    9.8794    4.5839 H   0  0  0  0  0
   12.3755   10.6948   -1.0165 H   0  0  0  0  0
   11.2897    9.1885    0.6142 H   0  0  0  0  0
    9.0631    9.1423    1.2018 H   0  0  0  0  0
    6.6063    9.2667    1.1764 H   0  0  0  0  0
    6.6264   10.4853    5.2859 H   0  0  0  0  0
    9.0781   10.3586    5.3062 H   0  0  0  0  0
    4.4490   10.0350    5.3359 H   0  0  0  0  0
    4.4267    9.9280    1.0734 H   0  0  0  0  0
  2  1  1  0  0  0
 22  2  1  0  0  0
  3  4  4  0  0  0
  3 10  4  0  0  0
 22  3  1  0  0  0
  4  5  4  0  0  0
  5  6  4  0  0  0
  6  8  1  0  0  0
  9  6  4  0  0  0
 22  7  1  0  0  0
 10  9  4  0  0  0
 11 12  4  0  0  0
 11 16  4  0  0  0
 11 22  1  0  0  0
 12 13  4  0  0  0
 13 14  4  0  0  0
 14 15  4  0  0  0
 14 17  1  0  0  0
 15 16  4  0  0  0
 17 18  4  0  0  0
 17 21  4  0  0  0
 18 19  4  0  0  0
 19 20  4  0  0  0
 20 21  4  0  0  0
  1 23  1  0  0  0
  1 24  1  0  0  0
  1 25  1  0  0  0
  2 26  1  0  0  0
  2 27  1  0  0  0
  4 28  1  0  0  0
  5 29  1  0  0  0
  7 30  1  0  0  0
  9 31  1  0  0  0
 10 32  1  0  0  0
 12 33  1  0  0  0
 13 34  1  0  0  0
 15 35  1  0  0  0
 16 36  1  0  0  0
 18 37  1  0  0  0
 21 38  1  0  0  0
M  END
$$$$
