6k1s_ligand
  -I-interpret- 

 47 50  0  0  0  0  0  0  0  0999 V2000
  -14.9150 -102.5550   -3.2600 C   0  0  0  0  0
  -13.6140 -102.4480   -3.5540 C   0  0  0  0  0
  -12.7730 -103.4380   -3.1670 C   0  0  0  0  0
  -13.2050 -104.4710   -2.4280 N   0  0  0  0  0
  -15.3930 -103.5750   -2.5420 N   0  0  0  0  0
  -11.5420 -102.9830   -5.9460 C   0  0  0  0  0
  -10.8410 -103.1360   -4.5880 C   0  0  0  0  0
  -11.4530 -103.3450   -3.3980 N   0  0  0  0  0
  -14.5510 -104.5880   -2.0930 C   0  0  0  0  0
  -13.4660 -101.3150   -4.2630 C   0  0  0  0  0
  -14.6510 -100.7510   -4.4030 C   0  0  0  0  0
  -15.5470 -101.5140   -3.7690 N   0  0  0  0  0
  -16.9910 -101.2850   -3.6210 C   0  0  0  0  0
  -17.4720 -101.2610   -4.9390 O   0  0  0  0  0
  -17.2750  -99.8940   -3.1390 C   0  0  0  0  0
  -17.2130  -99.8050   -1.7110 O   0  0  0  0  0
  -18.6780  -99.6550   -3.6540 C   0  0  0  0  0
  -19.6910 -100.0410   -2.6960 O   0  0  0  0  0
  -18.7330 -100.5730   -4.8710 C   0  0  0  0  0
  -18.9450  -99.7820   -6.1840 C   0  0  0  0  0
  -17.8660  -98.8450   -6.3670 O   0  0  0  0  0
  -20.2530  -99.2070   -6.2240 C   0  0  0  0  0
  -21.3560 -100.0770   -6.2590 C   0  0  0  0  0
  -22.6590  -99.6110   -6.2990 C   0  0  0  0  0
  -22.8910  -98.2540   -6.3110 C   0  0  0  0  0
  -24.5020  -97.7020   -6.3660 Cl  0  0  0  0  0
  -21.8190  -97.3590   -6.2730 C   0  0  0  0  0
  -20.4980  -97.8280   -6.2360 C   0  0  0  0  0
  -12.1098 -103.8874   -6.1643 H   0  0  0  0  0
  -12.2173 -102.1281   -5.9106 H   0  0  0  0  0
  -10.7946 -102.8252   -6.7235 H   0  0  0  0  0
   -9.7530 -103.0705   -4.5814 H   0  0  0  0  0
  -14.9259 -105.4290   -1.5096 H   0  0  0  0  0
  -12.5259 -100.9277   -4.6558 H   0  0  0  0  0
  -14.8618  -99.8265   -4.9406 H   0  0  0  0  0
  -17.4149 -102.0275   -2.9449 H   0  0  0  0  0
  -16.5519  -99.1569   -3.4883 H   0  0  0  0  0
  -17.3994  -98.9033   -1.4393 H   0  0  0  0  0
  -18.8734  -98.6033   -3.8636 H   0  0  0  0  0
  -20.5606  -99.8716   -3.0657 H   0  0  0  0  0
  -19.5728 -101.2598   -4.7650 H   0  0  0  0  0
  -18.9089 -100.4524   -7.0427 H   0  0  0  0  0
  -18.0022  -98.3571   -7.1825 H   0  0  0  0  0
  -21.1801 -101.1527   -6.2545 H   0  0  0  0  0
  -23.4935 -100.3119   -6.3208 H   0  0  0  0  0
  -22.0112  -96.2861   -6.2721 H   0  0  0  0  0
  -19.6666  -97.1234   -6.2167 H   0  0  0  0  0
  2  1  4  0  0  0
  1  5  4  0  0  0
  1 12  4  0  0  0
  3  2  4  0  0  0
  2 10  4  0  0  0
  3  4  4  0  0  0
  8  3  1  0  0  0
  4  9  4  0  0  0
  9  5  4  0  0  0
  7  6  1  0  0  0
  7  8  2  0  0  0
 10 11  4  0  0  0
 11 12  4  0  0  0
 12 13  1  0  0  0
 13 14  1  0  0  0
 13 15  1  0  0  0
 14 19  1  0  0  0
 15 16  1  0  0  0
 15 17  1  0  0  0
 17 18  1  0  0  0
 17 19  1  0  0  0
 19 20  1  0  0  0
 20 21  1  0  0  0
 20 22  1  0  0  0
 22 23  4  0  0  0
 22 28  4  0  0  0
 23 24  4  0  0  0
 24 25  4  0  0  0
 25 26  1  0  0  0
 25 27  4  0  0  0
 27 28  4  0  0  0
  6 29  1  0  0  0
  6 30  1  0  0  0
  6 31  1  0  0  0
  7 32  1  0  0  0
  9 33  1  0  0  0
 10 34  1  0  0  0
 11 35  1  0  0  0
 13 36  1  0  0  0
 15 37  1  0  0  0
 16 38  1  0  0  0
 17 39  1  0  0  0
 18 40  1  0  0  0
 19 41  1  0  0  0
 20 42  1  0  0  0
 21 43  1  0  0  0
 23 44  1  0  0  0
 24 45  1  0  0  0
 27 46  1  0  0  0
 28 47  1  0  0  0
M  END
$$$$
