4y2x_ligand
  -I-interpret- 

 49 52  0  0  0  0  0  0  0  0999 V2000
  -18.6860   -5.2800   61.9900 C   0  0  0  0  0
  -18.4920   -6.1470   60.9380 C   0  0  0  0  0
  -18.1950   -5.5540   63.2380 C   0  0  0  0  0
  -17.8020   -7.3230   61.1330 C   0  0  0  0  0
  -17.4960   -6.7150   63.4490 C   0  0  0  0  0
  -17.3160   -7.5880   62.3910 C   0  0  0  0  0
  -17.8330  -11.8980   70.5770 C   0  0  0  0  0
  -15.7060  -11.9590   69.3480 C   0  0  0  0  0
  -17.5980  -13.4800   68.7220 C   0  0  0  0  0
  -17.1900   -9.9940   69.0360 C   0  0  0  0  0
  -19.0080  -11.4820   68.4100 C   0  0  0  0  0
  -16.8970  -11.6710   67.1670 C   0  0  0  0  0
  -16.6930  -11.0400   70.0400 C   0  0  0  0  0
  -18.5590  -12.5450   69.4110 C   0  0  0  0  0
  -16.4090  -12.6830   68.1960 C   0  0  0  0  0
  -17.8300  -10.7010   67.8490 C   0  0  0  0  0
  -16.9670   -7.0160   64.8110 C   0  0  0  0  0
  -18.2940   -9.7360   66.7860 C   0  0  0  0  0
  -17.4540   -8.4850   66.5790 C   0  0  0  0  0
  -17.5060   -8.3060   65.1520 N   0  3  0  0  0
  -16.6170   -8.7630   62.5840 O   0  0  0  0  0
  -19.2418   -4.3569   61.8256 H   0  0  0  0  0
  -18.8845   -5.9027   59.9509 H   0  0  0  0  0
  -18.3583   -4.8547   64.0580 H   0  0  0  0  0
  -17.6458   -8.0237   60.3128 H   0  0  0  0  0
  -18.5270  -11.2748   71.1410 H   0  0  0  0  0
  -17.4329  -12.6702   71.2341 H   0  0  0  0  0
  -15.3274  -12.6909   70.0615 H   0  0  0  0  0
  -14.8746  -11.3727   68.9568 H   0  0  0  0  0
  -18.1020  -13.9743   67.8915 H   0  0  0  0  0
  -17.2490  -14.2314   69.4303 H   0  0  0  0  0
  -16.3502   -9.3902   68.6920 H   0  0  0  0  0
  -17.9251   -9.3478   69.5158 H   0  0  0  0  0
  -19.6680  -10.7838   68.9248 H   0  0  0  0  0
  -19.5128  -11.9816   67.5831 H   0  0  0  0  0
  -17.4209  -12.1850   66.3611 H   0  0  0  0  0
  -16.0482  -11.1337   66.7440 H   0  0  0  0  0
  -16.2320  -10.5071   70.8716 H   0  0  0  0  0
  -19.4349  -13.0799   69.7781 H   0  0  0  0  0
  -15.6982  -13.3643   67.7283 H   0  0  0  0  0
  -17.2621   -6.2546   65.5330 H   0  0  0  0  0
  -15.8771   -7.0202   64.8259 H   0  0  0  0  0
  -19.2753   -9.3870   67.1074 H   0  0  0  0  0
  -18.2499  -10.2844   65.8450 H   0  0  0  0  0
  -16.4376   -8.5859   66.9595 H   0  0  0  0  0
  -17.8291   -7.6232   67.1310 H   0  0  0  0  0
  -16.9565   -9.0353   64.6974 H   0  0  0  0  0
  -18.4744   -8.3642   64.8369 H   0  0  0  0  0
  -16.3374   -8.8208   63.5006 H   0  0  0  0  0
  1  2  4  0  0  0
  3  1  4  0  0  0
  4  2  4  0  0  0
  5  3  4  0  0  0
  6  4  4  0  0  0
  5  6  4  0  0  0
 17  5  1  0  0  0
  6 21  1  0  0  0
 13  7  1  0  0  0
 14  7  1  0  0  0
 13  8  1  0  0  0
 15  8  1  0  0  0
 14  9  1  0  0  0
 15  9  1  0  0  0
 10 13  1  0  0  0
 16 10  1  0  0  0
 11 14  1  0  0  0
 16 11  1  0  0  0
 12 15  1  0  0  0
 16 12  1  0  0  0
 18 16  1  0  0  0
 20 17  1  0  0  0
 19 18  1  0  0  0
 19 20  1  0  0  0
  1 22  1  0  0  0
  2 23  1  0  0  0
  3 24  1  0  0  0
  4 25  1  0  0  0
  7 26  1  0  0  0
  7 27  1  0  0  0
  8 28  1  0  0  0
  8 29  1  0  0  0
  9 30  1  0  0  0
  9 31  1  0  0  0
 10 32  1  0  0  0
 10 33  1  0  0  0
 11 34  1  0  0  0
 11 35  1  0  0  0
 12 36  1  0  0  0
 12 37  1  0  0  0
 13 38  1  0  0  0
 14 39  1  0  0  0
 15 40  1  0  0  0
 17 41  1  0  0  0
 17 42  1  0  0  0
 18 43  1  0  0  0
 18 44  1  0  0  0
 19 45  1  0  0  0
 19 46  1  0  0  0
 20 47  1  0  0  0
 20 48  1  0  0  0
 21 49  1  0  0  0
M  END
$$$$
