2f9k_ligand
  -I-interpret- 

 26 26  0  0  0  0  0  0  0  0999 V2000
   16.6780   75.6210   24.1760 O   0  0  0  0  0
   15.3220   75.5810   24.7890 P   0  0  0  0  0
   15.1240   74.2770   25.6680 O   0  0  0  0  0
   14.1300   75.5570   23.7330 O   0  0  0  0  0
   15.0210   77.0200   25.8670 C   0  0  0  0  0
   16.3800   77.1240   27.0700 P   0  0  0  0  0
   16.0060   78.3290   28.0570 O   0  0  0  0  0
   16.2000   75.8340   27.9790 O   0  0  0  0  0
   17.7260   77.2050   26.4520 O   0  0  0  0  0
   13.7750   76.8000   26.5490 O   0  0  0  0  0
   14.9610   78.2850   24.9600 C   0  0  0  0  0
   14.6850   79.5740   25.5980 N   0  0  0  0  0
   13.6500   79.8790   26.3320 C   0  0  0  0  0
   13.7430   81.0720   26.6940 N   0  0  0  0  0
   14.9480   81.6670   26.1730 C   0  0  0  0  0
   15.4800   80.6270   25.4920 C   0  0  0  0  0
   14.2428   74.2799   26.0488 H   0  0  0  0  0
   13.2913   75.5316   24.1994 H   0  0  0  0  0
   15.1226   78.1921   28.4070 H   0  0  0  0  0
   15.3162   75.8288   28.3538 H   0  0  0  0  0
   13.8459   76.0153   27.0975 H   0  0  0  0  0
   14.1270   78.1142   24.2793 H   0  0  0  0  0
   15.9584   78.3816   24.5312 H   0  0  0  0  0
   12.8350   79.2021   26.5884 H   0  0  0  0  0
   15.3278   82.6814   26.2950 H   0  0  0  0  0
   16.4197   80.6519   24.9402 H   0  0  0  0  0
  1  2  2  0  0  0
  2  3  1  0  0  0
  2  4  1  0  0  0
  2  5  1  0  0  0
  5  6  1  0  0  0
  5 10  1  0  0  0
  5 11  1  0  0  0
  6  7  1  0  0  0
  6  8  1  0  0  0
  6  9  2  0  0  0
 11 12  1  0  0  0
 12 13  4  0  0  0
 12 16  4  0  0  0
 13 14  4  0  0  0
 14 15  4  0  0  0
 15 16  4  0  0  0
  3 17  1  0  0  0
  4 18  1  0  0  0
  7 19  1  0  0  0
  8 20  1  0  0  0
 10 21  1  0  0  0
 11 22  1  0  0  0
 11 23  1  0  0  0
 13 24  1  0  0  0
 15 25  1  0  0  0
 16 26  1  0  0  0
M  END
$$$$
