1rw8_ligand
  -I-interpret- 

 38 41  0  0  0  0  0  0  0  0999 V2000
    5.6040   15.4780   10.8420 C   0  0  0  0  0
    4.5310   15.1030    9.8480 C   0  0  0  0  0
    4.3320   13.7430    9.8440 N   0  0  0  0  0
    5.2360   13.3190   10.7860 N   0  0  0  0  0
    5.9700   14.2530   11.3730 C   0  0  0  0  0
    5.4860   11.9500   11.2320 C   0  0  0  0  0
    6.6030   12.1950   12.2890 C   0  0  0  0  0
    6.9280   13.7080   12.3840 C   0  0  0  0  0
    3.7310   15.9850    8.9620 C   0  0  0  0  0
    6.1690   16.8260   11.2090 C   0  0  0  0  0
    5.3090   17.8820   11.5710 C   0  0  0  0  0
    5.8120   19.1620   11.9120 C   0  0  0  0  0
    7.1960   19.3770   11.8900 C   0  0  0  0  0
    8.0920   18.3420   11.5360 C   0  0  0  0  0
    7.5670   17.0650   11.1940 C   0  0  0  0  0
    4.2780   17.0550    8.2200 C   0  0  0  0  0
    3.4200   17.8330    7.4080 C   0  0  0  0  0
    2.0350   17.5410    7.3340 C   0  0  0  0  0
    1.5520   16.4590    8.0990 C   0  0  0  0  0
    2.3740   15.7310    8.8660 N   0  0  0  0  0
    7.6650   20.5720   12.2050 F   0  0  0  0  0
    0.1140   16.0570    8.1040 C   0  0  0  0  0
    5.7713   11.2661   10.4327 H   0  0  0  0  0
    4.6053   11.4413   11.6242 H   0  0  0  0  0
    7.5015   11.6552   11.9901 H   0  0  0  0  0
    6.2578   11.8426   13.2610 H   0  0  0  0  0
    6.8109   14.1284   13.3828 H   0  0  0  0  0
    7.9718   13.9541   12.1888 H   0  0  0  0  0
    4.2328   17.7103   11.5891 H   0  0  0  0  0
    5.1317   19.9679   12.1875 H   0  0  0  0  0
    9.1674   18.5198   11.5254 H   0  0  0  0  0
    8.2476   16.2600   10.9169 H   0  0  0  0  0
    5.3437   17.2776    8.2722 H   0  0  0  0  0
    3.8278   18.6649    6.8338 H   0  0  0  0  0
    1.3666   18.1319    6.7078 H   0  0  0  0  0
   -0.4935   16.8897    8.4586 H   0  0  0  0  0
   -0.1904   15.7884    7.0924 H   0  0  0  0  0
   -0.0202   15.2005    8.7646 H   0  0  0  0  0
  1  2  4  0  0  0
  1  5  4  0  0  0
  1 10  1  0  0  0
  2  3  4  0  0  0
  2  9  1  0  0  0
  3  4  4  0  0  0
  4  5  4  0  0  0
  4  6  1  0  0  0
  5  8  1  0  0  0
  6  7  1  0  0  0
  7  8  1  0  0  0
  9 16  4  0  0  0
  9 20  4  0  0  0
 10 11  4  0  0  0
 10 15  4  0  0  0
 11 12  4  0  0  0
 12 13  4  0  0  0
 13 14  4  0  0  0
 13 21  1  0  0  0
 14 15  4  0  0  0
 16 17  4  0  0  0
 17 18  4  0  0  0
 18 19  4  0  0  0
 19 20  4  0  0  0
 19 22  1  0  0  0
  6 23  1  0  0  0
  6 24  1  0  0  0
  7 25  1  0  0  0
  7 26  1  0  0  0
  8 27  1  0  0  0
  8 28  1  0  0  0
 11 29  1  0  0  0
 12 30  1  0  0  0
 14 31  1  0  0  0
 15 32  1  0  0  0
 16 33  1  0  0  0
 17 34  1  0  0  0
 18 35  1  0  0  0
 22 36  1  0  0  0
 22 37  1  0  0  0
 22 38  1  0  0  0
M  END
$$$$
