2a8h_ligand
  -I-interpret- 

 51 52  0  0  0  0  0  0  0  0999 V2000
   -7.4890   16.2720  113.1280 C   0  0  0  0  0
   -6.8460   15.2780  112.1410 C   0  0  0  0  0
   -5.6970   14.4770  112.8330 C   0  0  0  0  0
   -6.2000   13.7420  114.0690 N   0  0  0  0  0
   -7.3080   12.7310  113.8460 C   0  0  0  0  0
   -8.5500   13.3940  113.2830 C   0  0  0  0  0
   -8.2060   14.1210  111.6640 S   0  0  0  0  0
   -5.5790   13.9980  115.6990 S   0  0  0  0  0
   -4.7050   15.1530  115.7550 O   0  0  0  0  0
   -6.6830   13.8670  116.6320 O   0  0  0  0  0
   -4.5050   12.6080  115.9140 C   0  0  0  0  0
   -5.0300   11.3420  116.1560 C   0  0  0  0  0
   -4.1620   10.2580  116.3230 C   0  0  0  0  0
   -2.7790   10.4430  116.2490 C   0  0  0  0  0
   -2.2710   11.7260  116.0050 C   0  0  0  0  0
   -3.1290   12.8110  115.8370 C   0  0  0  0  0
   -1.8260    9.4690  116.3940 O   0  0  0  0  0
   -2.0450    8.4320  117.3530 C   0  0  0  0  0
   -1.9020    8.9330  118.7250 C   0  0  0  0  0
   -1.7850    9.3430  119.8480 C   0  0  0  0  0
   -1.6420    9.8410  121.2130 C   0  0  0  0  0
   -2.9280    9.6830  121.9370 N   0  3  0  0  0
   -5.0490   13.5150  111.8460 C   0  0  0  0  0
   -5.6890   12.6970  111.1880 O   0  0  0  0  0
   -3.6840   13.6670  111.7770 N   0  0  0  0  0
   -3.0190   12.8130  110.8860 O   0  0  0  0  0
   -6.4130   16.0430  110.8760 C   0  0  0  0  0
   -8.3065   16.7961  112.6330 H   0  0  0  0  0
   -7.8739   15.7280  113.9905 H   0  0  0  0  0
   -6.7397   16.9924  113.4561 H   0  0  0  0  0
   -4.9400   15.1881  113.1637 H   0  0  0  0  0
   -7.5606   12.2749  114.8032 H   0  0  0  0  0
   -6.9590   11.9838  113.1332 H   0  0  0  0  0
   -8.8681   14.1835  113.9639 H   0  0  0  0  0
   -9.3322   12.6428  113.1735 H   0  0  0  0  0
   -6.1086   11.1964  116.2149 H   0  0  0  0  0
   -4.5666    9.2636  116.5119 H   0  0  0  0  0
   -1.1931   11.8768  115.9460 H   0  0  0  0  0
   -2.7282   13.8068  115.6476 H   0  0  0  0  0
   -1.3043    7.6488  117.1914 H   0  0  0  0  0
   -3.0589    8.0523  117.2269 H   0  0  0  0  0
   -1.3677   10.8956  121.1872 H   0  0  0  0  0
   -0.8651    9.2742  121.7261 H   0  0  0  0  0
   -2.8253   10.0316  122.8901 H   0  0  0  0  0
   -3.6548   10.2131  121.4563 H   0  0  0  0  0
   -3.1846    8.6961  121.9605 H   0  0  0  0  0
   -3.1865   14.3578  112.3389 H   0  0  0  0  0
   -2.0771   12.9967  110.9112 H   0  0  0  0  0
   -6.0615   15.3338  110.1266 H   0  0  0  0  0
   -7.2627   16.5997  110.4809 H   0  0  0  0  0
   -5.6094   16.7348  111.1285 H   0  0  0  0  0
  1  2  1  0  0  0
  2  3  1  0  0  0
  2  7  1  0  0  0
  2 27  1  0  0  0
  3  4  1  0  0  0
  3 23  1  0  0  0
  4  5  1  0  0  0
  4  8  1  0  0  0
  5  6  1  0  0  0
  6  7  1  0  0  0
  8  9  2  0  0  0
  8 10  2  0  0  0
  8 11  1  0  0  0
 11 12  4  0  0  0
 11 16  4  0  0  0
 12 13  4  0  0  0
 13 14  4  0  0  0
 14 15  4  0  0  0
 14 17  1  0  0  0
 15 16  4  0  0  0
 17 18  1  0  0  0
 18 19  1  0  0  0
 19 20  3  0  0  0
 20 21  1  0  0  0
 21 22  1  0  0  0
 23 24  2  0  0  0
 23 25  1  0  0  0
 25 26  1  0  0  0
  1 28  1  0  0  0
  1 29  1  0  0  0
  1 30  1  0  0  0
  3 31  1  0  0  0
  5 32  1  0  0  0
  5 33  1  0  0  0
  6 34  1  0  0  0
  6 35  1  0  0  0
 12 36  1  0  0  0
 13 37  1  0  0  0
 15 38  1  0  0  0
 16 39  1  0  0  0
 18 40  1  0  0  0
 18 41  1  0  0  0
 21 42  1  0  0  0
 21 43  1  0  0  0
 22 44  1  0  0  0
 22 45  1  0  0  0
 22 46  1  0  0  0
 25 47  1  0  0  0
 26 48  1  0  0  0
 27 49  1  0  0  0
 27 50  1  0  0  0
 27 51  1  0  0  0
M  END
$$$$
