3t0t_ligand
  -I-interpret- 

 35 37  0  0  0  0  0  0  0  0999 V2000
   27.1840    0.6450  -12.0500 C   0  0  0  0  0
   29.1600   -1.6040  -15.9720 O   0  0  0  0  0
   29.4630   -1.9300  -11.9330 O   0  0  0  0  0
   33.0090   -5.8460  -14.8230 Br  0  0  0  0  0
   23.8950    4.1860  -17.0780 C   0  0  0  0  0
   23.4280    4.6900  -15.8690 C   0  0  0  0  0
   31.8420   -4.5620  -12.6560 C   0  0  0  0  0
   31.0400   -3.6760  -11.9800 C   0  0  0  0  0
   24.8310    3.1700  -17.0600 C   0  0  0  0  0
   23.8900    4.1840  -14.6490 C   0  0  0  0  0
   31.0470   -3.6530  -14.7420 C   0  0  0  0  0
   27.7810   -0.1180  -14.3510 N   0  0  0  0  0
   26.1780    1.6940  -15.5550 N   0  0  0  0  0
   28.5650   -0.9420  -13.8940 N   0  0  0  0  0
   25.4430    2.4760  -13.6670 N   0  0  0  0  0
   27.0830    0.6870  -13.5770 C   0  0  0  0  0
   29.2760   -1.7040  -14.7430 C   0  0  0  0  0
   31.8510   -4.5580  -14.0310 C   0  0  0  0  0
   30.2420   -2.7810  -12.6580 C   0  0  0  0  0
   30.2280   -2.7480  -14.0500 C   0  0  0  0  0
   26.2620    1.5850  -14.2290 C   0  0  0  0  0
   25.3010    2.6560  -15.8500 C   0  0  0  0  0
   24.8310    3.1550  -14.6410 C   0  0  0  0  0
   26.8924   -0.3434  -11.6949 H   0  0  0  0  0
   28.2110    0.8521  -11.7492 H   0  0  0  0  0
   26.5202    1.3965  -11.6224 H   0  0  0  0  0
   28.9641   -1.3676  -12.5300 H   0  0  0  0  0
   23.5288    4.5857  -18.0237 H   0  0  0  0  0
   22.6901    5.4922  -15.8718 H   0  0  0  0  0
   32.4680   -5.2645  -12.1058 H   0  0  0  0  0
   31.0347   -3.6809  -10.8900 H   0  0  0  0  0
   25.2064    2.7656  -18.0000 H   0  0  0  0  0
   23.5163    4.5920  -13.7099 H   0  0  0  0  0
   31.0590   -3.6534  -15.8319 H   0  0  0  0  0
   27.0617    0.4848  -12.5061 H   0  0  0  0  0
 16  1  1  0  0  0
 17  2  2  0  0  0
 19  3  1  0  0  0
 18  4  1  0  0  0
  6  5  4  0  0  0
  9  5  4  0  0  0
 10  6  4  0  0  0
  7  8  4  0  0  0
 18  7  4  0  0  0
  8 19  4  0  0  0
 22  9  4  0  0  0
 23 10  4  0  0  0
 11 18  4  0  0  0
 20 11  4  0  0  0
 14 12  2  0  0  0
 12 16  1  0  0  0
 21 13  4  0  0  0
 13 22  4  0  0  0
 17 14  1  0  0  0
 21 15  4  0  0  0
 15 23  4  0  0  0
 16 21  1  0  0  0
 17 20  1  0  0  0
 19 20  4  0  0  0
 22 23  4  0  0  0
  1 24  1  0  0  0
  1 25  1  0  0  0
  1 26  1  0  0  0
  3 27  1  0  0  0
  5 28  1  0  0  0
  6 29  1  0  0  0
  7 30  1  0  0  0
  8 31  1  0  0  0
  9 32  1  0  0  0
 10 33  1  0  0  0
 11 34  1  0  0  0
 16 35  1  0  0  0
M  END
$$$$
