1re1_ligand
  -I-interpret- 

 28 28  0  0  0  0  0  0  0  0999 V2000
   39.1260   92.6950   21.1940 C   0  0  0  0  0
   40.0710   93.4100   21.9020 C   0  0  0  0  0
   40.3110   94.7460   21.6210 C   0  0  0  0  0
   39.6650   95.3880   20.6690 N   0  0  0  0  0
   38.7390   94.6860   19.9690 C   0  0  0  0  0
   38.4260   93.3370   20.1870 C   0  0  0  0  0
   41.0220   92.5010   23.2430 Br  0  0  0  0  0
   37.2780   92.6690   19.4350 C   0  0  0  0  0
   36.7690   91.5970   19.7590 O   0  0  0  0  0
   36.9000   93.3400   18.3470 N   0  0  0  0  0
   35.7550   92.9370   17.5070 C   0  0  0  0  0
   34.9560   94.1610   17.0120 C   0  0  0  0  0
   36.0620   91.8800   16.4060 C   0  0  0  0  0
   34.8670   91.5300   15.7050 O   0  0  0  0  0
   34.3700   94.9510   18.1600 C   0  0  0  0  0
   33.9470   96.1170   17.9900 O   0  0  0  0  0
   34.2880   94.4020   19.2770 O   0  0  0  0  0
   38.9350   91.6466   21.4231 H   0  0  0  0  0
   41.0579   95.2824   22.2062 H   0  0  0  0  0
   38.1990   95.2089   19.1796 H   0  0  0  0  0
   37.4273   94.1720   18.0821 H   0  0  0  0  0
   35.0966   92.3768   18.1709 H   0  0  0  0  0
   34.1365   93.8053   16.3875 H   0  0  0  0  0
   35.6337   94.8116   16.4592 H   0  0  0  0  0
   36.4726   90.9864   16.8761 H   0  0  0  0  0
   36.7779   92.3005   15.6997 H   0  0  0  0  0
   35.0722   90.8785   15.0305 H   0  0  0  0  0
   34.0895   96.3780   17.0772 H   0  0  0  0  0
  1  2  4  0  0  0
  1  6  4  0  0  0
  2  3  4  0  0  0
  2  7  1  0  0  0
  3  4  4  0  0  0
  4  5  4  0  0  0
  5  6  4  0  0  0
  6  8  1  0  0  0
  8  9  2  0  0  0
  8 10  1  0  0  0
 10 11  1  0  0  0
 11 12  1  0  0  0
 11 13  1  0  0  0
 12 15  1  0  0  0
 13 14  1  0  0  0
 15 16  1  0  0  0
 15 17  2  0  0  0
  1 18  1  0  0  0
  3 19  1  0  0  0
  5 20  1  0  0  0
 10 21  1  0  0  0
 11 22  1  0  0  0
 12 23  1  0  0  0
 12 24  1  0  0  0
 13 25  1  0  0  0
 13 26  1  0  0  0
 14 27  1  0  0  0
 16 28  1  0  0  0
M  END
$$$$
