5a14_ligand
  -I-interpret- 

 64 67  0  0  0  0  0  0  0  0999 V2000
   30.1510    6.6710    5.8400 C   0  0  0  0  0
   30.7330    5.9910    6.9000 C   0  0  0  0  0
   30.0880    5.9120    8.1500 C   0  0  0  0  0
   28.2640    7.2340    7.2920 C   0  0  0  0  0
   28.9250    7.2940    6.0530 C   0  0  0  0  0
   28.3480    7.9940    5.0040 O   0  0  0  0  0
   27.2160    7.4730    4.3940 C   0  0  0  0  0
   26.8810    6.1020    4.4060 C   0  0  0  0  0
   25.7180    5.7070    3.7280 C   0  0  0  0  0
   24.9790    6.6690    3.1010 N   0  0  0  0  0
   25.3330    7.9740    3.1100 C   0  0  0  0  0
   24.5950    8.9180    2.5040 N   0  0  0  0  0
   30.1130    4.6560   10.2620 C   0  0  0  0  0
   30.9130    3.9270   11.0670 N   0  0  0  0  0
   30.5240    3.3920   12.3120 C   0  0  0  0  0
   31.5510    3.2130   13.2640 C   0  0  0  0  0
   31.2210    2.7160   14.5250 C   0  0  0  0  0
   29.8850    2.4300   14.8680 C   0  0  0  0  0
   28.8490    2.6270   13.9140 C   0  0  0  0  0
   27.3680    2.3340   14.2430 C   0  0  0  0  0
   26.9130    3.2150   15.1700 F   0  0  0  0  0
   27.2600    1.0670   14.7080 F   0  0  0  0  0
   26.5290    2.4700   13.2000 F   0  0  0  0  0
   29.1810    3.1100   12.6470 C   0  0  0  0  0
   29.6340    1.8800   16.3040 C   0  0  0  0  0
   30.3260    2.6680   17.3550 N   0  3  0  0  0
   29.9870    4.1240   17.4730 C   0  0  0  0  0
   26.4480    8.3700    3.7520 N   0  0  0  0  0
   31.0000    4.7830   18.4510 C   0  0  0  0  0
   31.0000    4.0680   19.7690 N   0  3  0  0  0
   28.8520    6.5290    8.3470 C   0  0  0  0  0
   31.4270    2.6550   19.5990 C   0  0  0  0  0
   30.4210    1.9370   18.6550 C   0  0  0  0  0
   31.8770    4.7960   20.7320 C   0  0  0  0  0
   28.9190    4.8660   10.5110 O   0  0  0  0  0
   30.7200    5.1710    9.1750 N   0  0  0  0  0
   30.6405    6.7160    4.8672 H   0  0  0  0  0
   31.7023    5.5114    6.7639 H   0  0  0  0  0
   27.3038    7.7314    7.4290 H   0  0  0  0  0
   27.5051    5.3743    4.9248 H   0  0  0  0  0
   25.4127    4.6609    3.7024 H   0  0  0  0  0
   23.7370    8.6598    2.0167 H   0  0  0  0  0
   24.8924    9.8933    2.5310 H   0  0  0  0  0
   31.8671    3.7503   10.7527 H   0  0  0  0  0
   32.5840    3.4589   13.0180 H   0  0  0  0  0
   32.0103    2.5461   15.2573 H   0  0  0  0  0
   28.3957    3.2712   11.9085 H   0  0  0  0  0
   30.0215    0.8619   16.3425 H   0  0  0  0  0
   28.5629    1.9348   16.4985 H   0  0  0  0  0
   31.2760    2.7420   16.9912 H   0  0  0  0  0
   28.9714    4.2421   17.8508 H   0  0  0  0  0
   30.0459    4.6022   16.4953 H   0  0  0  0  0
   30.7117    5.8218   18.6120 H   0  0  0  0  0
   31.9985    4.7260   18.0176 H   0  0  0  0  0
   30.0523    4.0531   20.1459 H   0  0  0  0  0
   28.3504    6.4622    9.3124 H   0  0  0  0  0
   31.4451    2.1557   20.5677 H   0  0  0  0  0
   32.4272    2.6210   19.1672 H   0  0  0  0  0
   30.7675    0.9203   18.4694 H   0  0  0  0  0
   29.4388    1.9173   19.1271 H   0  0  0  0  0
   32.8931    4.8337   20.3392 H   0  0  0  0  0
   31.5011    5.8100   20.8688 H   0  0  0  0  0
   31.8752    4.2743   21.6890 H   0  0  0  0  0
   31.7234    5.0124    9.0835 H   0  0  0  0  0
  2  1  4  0  0  0
  1  5  4  0  0  0
  3  2  4  0  0  0
  3 31  4  0  0  0
 36  3  1  0  0  0
  4  5  4  0  0  0
 31  4  4  0  0  0
  5  6  1  0  0  0
  6  7  1  0  0  0
  7  8  4  0  0  0
  7 28  4  0  0  0
  8  9  4  0  0  0
  9 10  4  0  0  0
 11 10  4  0  0  0
 11 12  1  0  0  0
 28 11  4  0  0  0
 13 14  1  0  0  0
 13 35  2  0  0  0
 13 36  1  0  0  0
 14 15  1  0  0  0
 15 16  4  0  0  0
 15 24  4  0  0  0
 16 17  4  0  0  0
 17 18  4  0  0  0
 18 19  4  0  0  0
 18 25  1  0  0  0
 19 20  1  0  0  0
 19 24  4  0  0  0
 20 21  1  0  0  0
 20 22  1  0  0  0
 20 23  1  0  0  0
 25 26  1  0  0  0
 26 27  1  0  0  0
 26 33  1  0  0  0
 27 29  1  0  0  0
 29 30  1  0  0  0
 30 32  1  0  0  0
 30 34  1  0  0  0
 32 33  1  0  0  0
  1 37  1  0  0  0
  2 38  1  0  0  0
  4 39  1  0  0  0
  8 40  1  0  0  0
  9 41  1  0  0  0
 12 42  1  0  0  0
 12 43  1  0  0  0
 14 44  1  0  0  0
 16 45  1  0  0  0
 17 46  1  0  0  0
 24 47  1  0  0  0
 25 48  1  0  0  0
 25 49  1  0  0  0
 26 50  1  0  0  0
 27 51  1  0  0  0
 27 52  1  0  0  0
 29 53  1  0  0  0
 29 54  1  0  0  0
 30 55  1  0  0  0
 31 56  1  0  0  0
 32 57  1  0  0  0
 32 58  1  0  0  0
 33 59  1  0  0  0
 33 60  1  0  0  0
 34 61  1  0  0  0
 34 62  1  0  0  0
 34 63  1  0  0  0
 36 64  1  0  0  0
M  END
$$$$
