5aiv_ligand
  -I-interpret- 

 37 39  0  0  0  0  0  0  0  0999 V2000
   36.9540  -20.5450   -2.5310 C   0  0  0  0  0
   36.7680  -19.3150   -1.8220 O   0  0  0  0  0
   35.5010  -19.1900   -1.1650 C   0  0  0  0  0
   35.6650  -18.3750    0.1210 C   0  0  0  0  0
   34.4580  -18.5950    1.0380 C   0  0  0  0  0
   34.0320  -17.2960    1.5710 N   0  0  0  0  0
   33.3800  -17.1180    2.7470 C   0  0  0  0  0
   33.0920  -18.0360    3.4880 O   0  0  0  0  0
   33.0520  -15.7140    3.0780 C   0  0  0  0  0
   31.9720  -15.1480    3.6020 N   0  0  0  0  0
   32.2810  -13.8220    3.6530 C   0  0  0  0  0
   33.4730  -13.6820    3.1430 N   0  0  0  0  0
   33.9230  -14.7440    2.8160 O   0  0  0  0  0
   31.4940  -12.6410    4.0790 C   0  0  0  0  0
   30.2140  -12.7230    4.6190 C   0  0  0  0  0
   29.5240  -11.5620    4.9490 C   0  0  0  0  0
   30.0770  -10.3130    4.7380 C   0  0  0  0  0
   31.3480  -10.2020    4.1810 C   0  0  0  0  0
   32.0590  -11.3680    3.8450 C   0  0  0  0  0
   33.3390  -10.9150    3.2920 C   0  0  0  0  0
   33.3330   -9.5770    3.3190 C   0  0  0  0  0
   32.1540   -9.1370    3.8480 N   0  0  0  0  0
   36.8751  -21.3798   -1.8346 H   0  0  0  0  0
   36.1879  -20.6386   -3.3007 H   0  0  0  0  0
   37.9401  -20.5496   -2.9955 H   0  0  0  0  0
   35.1223  -20.1819   -0.9184 H   0  0  0  0  0
   34.7990  -18.6831   -1.8271 H   0  0  0  0  0
   35.7355  -17.3170   -0.1314 H   0  0  0  0  0
   36.5702  -18.6963    0.6363 H   0  0  0  0  0
   34.7306  -19.2608    1.8569 H   0  0  0  0  0
   33.6430  -19.0508    0.4757 H   0  0  0  0  0
   34.2415  -16.4659    1.0165 H   0  0  0  0  0
   29.7527  -13.6968    4.7831 H   0  0  0  0  0
   28.5270  -11.6383    5.3828 H   0  0  0  0  0
   29.5188   -9.4163    5.0073 H   0  0  0  0  0
   34.1459  -11.5502    2.9266 H   0  0  0  0  0
   34.1444   -8.9372    2.9721 H   0  0  0  0  0
  1  2  1  0  0  0
  2  3  1  0  0  0
  3  4  1  0  0  0
  4  5  1  0  0  0
  5  6  1  0  0  0
  6  7  1  0  0  0
  7  8  2  0  0  0
  7  9  1  0  0  0
  9 10  4  0  0  0
  9 13  4  0  0  0
 10 11  4  0  0  0
 11 12  4  0  0  0
 11 14  1  0  0  0
 12 13  4  0  0  0
 14 15  4  0  0  0
 14 19  4  0  0  0
 15 16  4  0  0  0
 16 17  4  0  0  0
 17 18  4  0  0  0
 18 19  4  0  0  0
 18 22  4  0  0  0
 19 20  4  0  0  0
 20 21  4  0  0  0
 21 22  4  0  0  0
  1 23  1  0  0  0
  1 24  1  0  0  0
  1 25  1  0  0  0
  3 26  1  0  0  0
  3 27  1  0  0  0
  4 28  1  0  0  0
  4 29  1  0  0  0
  5 30  1  0  0  0
  5 31  1  0  0  0
  6 32  1  0  0  0
 15 33  1  0  0  0
 16 34  1  0  0  0
 17 35  1  0  0  0
 20 36  1  0  0  0
 21 37  1  0  0  0
M  END
$$$$
