2w06_ligand
  -I-interpret- 

 47 50  0  0  0  0  0  0  0  0999 V2000
    4.8570   29.1990    6.0270 C   0  0  0  0  0
   -1.4650   29.7980   10.6100 N   0  0  0  0  0
   -2.6740   30.6740   10.7880 C   0  0  0  0  0
   -1.3900   28.5640   11.2680 C   0  0  0  0  0
   -2.4390   27.9550   12.1840 C   0  0  0  0  0
   -3.3230   31.2010    9.5000 C   0  0  0  0  0
   -0.0590   32.2630    8.9010 C   0  0  0  0  0
    0.3340   30.9190    9.0050 C   0  0  0  0  0
   -0.2630   29.9100    9.9010 C   0  0  0  0  0
    0.4340   28.7370   10.1680 C   0  0  0  0  0
    0.6460   33.1060    8.0000 C   0  0  0  0  0
    3.8290   29.5840    6.9050 C   0  0  0  0  0
    2.0660   31.3000    7.3620 C   0  0  0  0  0
    1.3780   30.5030    8.2340 N   0  0  0  0  0
    4.5840   23.8680    7.7490 C   0  0  0  0  0
    3.5800   28.7730    8.0690 C   0  0  0  0  0
    4.3620   27.6270    8.3170 C   0  0  0  0  0
    5.4010   27.2700    7.4120 C   0  0  0  0  0
    6.8320   25.3280    6.4470 O   0  0  0  0  0
    6.3720   25.8750    7.7030 S   0  0  0  0  0
    7.5070   26.2770    8.5100 O   0  0  0  0  0
    5.4520   24.6480    8.5960 N   0  0  0  0  0
    5.6390   28.0530    6.2750 C   0  0  0  0  0
    3.0800   30.7470    6.6460 N   0  0  0  0  0
    1.6730   32.5920    7.2770 N   0  0  0  0  0
   -0.2780   27.9560   10.9970 N   0  0  0  0  0
   -2.9320   32.1450   10.6420 C   0  0  0  0  0
    5.0530   29.7980    5.1377 H   0  0  0  0  0
   -2.8489   30.0555   11.6683 H   0  0  0  0  0
   -2.6076   28.6181   13.0325 H   0  0  0  0  0
   -3.3700   27.8250   11.6322 H   0  0  0  0  0
   -2.0890   26.9867   12.5418 H   0  0  0  0  0
   -4.1751   30.9892    8.8541 H   0  0  0  0  0
   -3.2097   31.1154    8.4193 H   0  0  0  0  0
   -0.8852   32.6505    9.4972 H   0  0  0  0  0
    1.4150   28.4876    9.7636 H   0  0  0  0  0
    0.3651   34.1535    7.8909 H   0  0  0  0  0
    3.8682   24.5277    7.2586 H   0  0  0  0  0
    5.1803   23.3528    6.9960 H   0  0  0  0  0
    4.0496   23.1359    8.3544 H   0  0  0  0  0
    2.7835   29.0467    8.7609 H   0  0  0  0  0
    4.1717   27.0159    9.1993 H   0  0  0  0  0
    5.5292   24.5090    9.6035 H   0  0  0  0  0
    6.4314   27.7751    5.5800 H   0  0  0  0  0
    3.3360   31.2487    5.7956 H   0  0  0  0  0
   -2.3871   33.0803   10.7701 H   0  0  0  0  0
   -3.3862   32.9497   11.2201 H   0  0  0  0  0
  1 12  4  0  0  0
 23  1  4  0  0  0
  2  3  1  0  0  0
  2  4  4  0  0  0
  9  2  4  0  0  0
  3  6  1  0  0  0
  3 27  1  0  0  0
  4  5  1  0  0  0
 26  4  4  0  0  0
 27  6  1  0  0  0
  8  7  4  0  0  0
 11  7  4  0  0  0
  8  9  1  0  0  0
 14  8  4  0  0  0
  9 10  4  0  0  0
 10 26  4  0  0  0
 25 11  4  0  0  0
 16 12  4  0  0  0
 12 24  1  0  0  0
 13 14  4  0  0  0
 24 13  1  0  0  0
 13 25  4  0  0  0
 22 15  1  0  0  0
 17 16  4  0  0  0
 18 17  4  0  0  0
 20 18  1  0  0  0
 18 23  4  0  0  0
 20 19  2  0  0  0
 20 21  2  0  0  0
 20 22  1  0  0  0
  1 28  1  0  0  0
  3 29  1  0  0  0
  5 30  1  0  0  0
  5 31  1  0  0  0
  5 32  1  0  0  0
  6 33  1  0  0  0
  6 34  1  0  0  0
  7 35  1  0  0  0
 10 36  1  0  0  0
 11 37  1  0  0  0
 15 38  1  0  0  0
 15 39  1  0  0  0
 15 40  1  0  0  0
 16 41  1  0  0  0
 17 42  1  0  0  0
 22 43  1  0  0  0
 23 44  1  0  0  0
 24 45  1  0  0  0
 27 46  1  0  0  0
 27 47  1  0  0  0
M  END
$$$$
