3e8n_ligand
  -I-interpret- 

 51 53  0  0  0  0  0  0  0  0999 V2000
   34.3400   28.4550   42.8530 C   0  0  0  0  0
   33.9640   27.6190   41.7010 C   0  0  0  0  0
   35.0170   26.7800   41.0330 C   0  0  0  0  0
   36.3140   26.7470   41.4720 C   0  0  0  0  0
   36.6820   27.5860   42.6230 C   0  0  0  0  0
   35.7010   28.4170   43.3120 C   0  0  0  0  0
   32.5690   27.7130   41.2860 N   0  0  0  0  0
   31.9180   26.8200   40.3340 C   0  0  0  0  0
   31.1680   27.4140   39.2350 C   0  0  0  0  0
   30.5010   26.5550   38.2800 C   0  0  0  0  0
   30.5930   25.1100   38.4110 C   0  0  0  0  0
   31.3470   24.5320   39.5030 C   0  0  0  0  0
   31.9980   25.3660   40.4520 C   0  0  0  0  0
   38.7220   27.5710   43.3100 I   0  0  0  0  0
   33.4180   29.2410   43.4820 F   0  0  0  0  0
   32.7030   24.7620   41.4790 F   0  0  0  0  0
   31.4410   23.1710   39.6250 F   0  0  0  0  0
   31.0760   28.8420   39.0550 N   0  0  0  0  0
   30.1930   29.8390   39.9810 S   0  0  0  0  0
   30.6300   31.3320   39.6600 O   0  0  0  0  0
   30.4530   29.5450   41.4980 O   0  0  0  0  0
   28.4240   29.6110   39.6080 C   0  0  0  0  0
   27.7540   28.4420   40.3080 C   0  0  0  0  0
   27.4760   29.8540   40.7580 C   0  0  0  0  0
   27.9190   29.9540   38.1600 C   0  0  0  0  0
   28.1580   31.4640   37.8000 C   0  0  0  0  0
   27.6620   31.7600   36.3580 C   0  0  0  0  0
   28.5810   32.6570   35.6930 O   0  0  0  0  0
   27.4440   32.3130   38.7240 O   0  0  0  0  0
   29.7570   27.1530   37.2030 O   0  0  0  0  0
   28.5150   26.4590   36.9720 C   0  0  0  0  0
   34.7387   26.1767   40.1689 H   0  0  0  0  0
   37.0544   26.1154   40.9812 H   0  0  0  0  0
   36.0008   29.0099   44.1761 H   0  0  0  0  0
   32.0058   28.4600   41.6924 H   0  0  0  0  0
   30.0952   24.4633   37.6884 H   0  0  0  0  0
   31.6058   29.2560   38.2880 H   0  0  0  0  0
   28.0300   27.4827   40.7457 H   0  0  0  0  0
   27.1980   27.5414   40.0475 H   0  0  0  0  0
   26.6139   30.4817   40.9837 H   0  0  0  0  0
   27.4528   30.4225   41.6877 H   0  0  0  0  0
   26.8479   29.7570   38.1156 H   0  0  0  0  0
   28.4740   29.3409   37.4499 H   0  0  0  0  0
   29.2271   31.6663   37.8654 H   0  0  0  0  0
   26.6778   32.2259   36.4060 H   0  0  0  0  0
   27.6055   30.8257   35.7994 H   0  0  0  0  0
   28.2664   32.8339   34.8034 H   0  0  0  0  0
   27.5968   33.2327   38.4952 H   0  0  0  0  0
   28.7230   25.4205   36.7144 H   0  0  0  0  0
   27.9063   26.4956   37.8755 H   0  0  0  0  0
   27.9797   26.9379   36.1521 H   0  0  0  0  0
  1  2  4  0  0  0
  1  6  4  0  0  0
  1 15  1  0  0  0
  2  3  4  0  0  0
  2  7  1  0  0  0
  3  4  4  0  0  0
  4  5  4  0  0  0
  5  6  4  0  0  0
  5 14  1  0  0  0
  7  8  1  0  0  0
  8  9  4  0  0  0
  8 13  4  0  0  0
  9 10  4  0  0  0
  9 18  1  0  0  0
 10 11  4  0  0  0
 10 30  1  0  0  0
 11 12  4  0  0  0
 12 13  4  0  0  0
 12 17  1  0  0  0
 13 16  1  0  0  0
 18 19  1  0  0  0
 19 20  2  0  0  0
 19 21  2  0  0  0
 19 22  1  0  0  0
 22 23  1  0  0  0
 22 24  1  0  0  0
 22 25  1  0  0  0
 23 24  1  0  0  0
 25 26  1  0  0  0
 26 27  1  0  0  0
 26 29  1  0  0  0
 27 28  1  0  0  0
 30 31  1  0  0  0
  3 32  1  0  0  0
  4 33  1  0  0  0
  6 34  1  0  0  0
  7 35  1  0  0  0
 11 36  1  0  0  0
 18 37  1  0  0  0
 23 38  1  0  0  0
 23 39  1  0  0  0
 24 40  1  0  0  0
 24 41  1  0  0  0
 25 42  1  0  0  0
 25 43  1  0  0  0
 26 44  1  0  0  0
 27 45  1  0  0  0
 27 46  1  0  0  0
 28 47  1  0  0  0
 29 48  1  0  0  0
 31 49  1  0  0  0
 31 50  1  0  0  0
 31 51  1  0  0  0
M  END
$$$$
