6aej_ligand
  -I-interpret- 

 38 39  0  0  0  0  0  0  0  0999 V2000
   31.0860    6.5790   26.1880 C   0  0  0  0  0
   32.5070    8.0020   24.4720 N   0  0  0  0  0
   33.8910    6.9520   22.1450 C   0  0  0  0  0
   33.4460    6.0610   23.2620 C   0  0  0  0  0
   28.6230    4.8320   32.1580 O   0  0  0  0  0
   29.3640    5.8890   31.1460 N   0  0  0  0  0
   30.9140    6.3720   31.3710 O   0  0  0  0  0
   28.7290    6.3330   30.0300 C   0  0  0  0  0
   29.4170    7.0590   29.0320 C   0  0  0  0  0
   27.3520    6.0380   29.8460 C   0  0  0  0  0
   26.6400    5.3280   30.7900 O   0  0  0  0  0
   26.6850    6.4730   28.6860 C   0  0  0  0  0
   25.3560    6.1780   28.5510 O   0  0  0  0  0
   27.3900    7.1980   27.7250 C   0  0  0  0  0
   28.7600    7.4770   27.8710 C   0  0  0  0  0
   29.4840    8.2210   26.9320 C   0  0  0  0  0
   30.7150    7.6680   26.1490 C   0  0  0  0  0
   31.3720    5.6590   26.2400 N   0  0  0  0  0
   31.4740    8.5280   25.1910 C   0  0  0  0  0
   31.0890    9.6730   25.0860 O   0  0  0  0  0
   33.0680    6.6540   24.5420 C   0  0  0  0  0
   33.5420    8.3510   22.2930 O   0  0  0  0  0
   33.2730    8.8580   23.5870 C   0  0  0  0  0
   33.3890    6.5984   21.2444 H   0  0  0  0  0
   34.9796    6.9025   22.1207 H   0  0  0  0  0
   34.3147    5.4425   23.4876 H   0  0  0  0  0
   32.5353    5.5880   22.8947 H   0  0  0  0  0
   30.4721    7.2959   29.1689 H   0  0  0  0  0
   25.7321    5.2267   30.4949 H   0  0  0  0  0
   25.0335    6.5329   27.7193 H   0  0  0  0  0
   26.8657    7.5569   26.8393 H   0  0  0  0  0
   29.9197    9.0159   27.5373 H   0  0  0  0  0
   28.7521    8.3918   26.1425 H   0  0  0  0  0
   30.3221    7.8220   27.1540 H   0  0  0  0  0
   32.2898    6.0161   24.9610 H   0  0  0  0  0
   33.9824    6.7293   25.1305 H   0  0  0  0  0
   34.2431    8.9947   24.0649 H   0  0  0  0  0
   32.6716    9.7551   23.4403 H   0  0  0  0  0
 17  1  1  0  0  0
  1 18  3  0  0  0
 19  2  1  0  0  0
  2 21  1  0  0  0
  2 23  1  0  0  0
  4  3  1  0  0  0
  3 22  1  0  0  0
 21  4  1  0  0  0
  6  5  2  0  0  0
  6  7  2  0  0  0
  8  6  1  0  0  0
  9  8  4  0  0  0
  8 10  4  0  0  0
 15  9  4  0  0  0
 10 11  1  0  0  0
 12 10  4  0  0  0
 12 13  1  0  0  0
 14 12  4  0  0  0
 15 14  4  0  0  0
 16 15  1  0  0  0
 17 16  1  0  0  0
 17 19  1  0  0  0
 19 20  2  0  0  0
 22 23  1  0  0  0
  3 24  1  0  0  0
  3 25  1  0  0  0
  4 26  1  0  0  0
  4 27  1  0  0  0
  9 28  1  0  0  0
 11 29  1  0  0  0
 13 30  1  0  0  0
 14 31  1  0  0  0
 16 32  1  0  0  0
 16 33  1  0  0  0
 17 34  1  0  0  0
 21 35  1  0  0  0
 21 36  1  0  0  0
 23 37  1  0  0  0
 23 38  1  0  0  0
M  END
$$$$
