6hjj_ligand
  -I-interpret- 

 62 65  0  0  0  0  0  0  0  0999 V2000
    7.6800  -28.4880   -7.4910 C   0  0  0  0  0
    7.9270  -26.9900   -9.3560 C   0  0  0  0  0
    9.6020  -25.1530   -9.5380 C   0  0  0  0  0
   10.8250  -23.1160   -9.7250 C   0  0  0  0  0
   13.8950  -20.8730   -9.1520 C   0  0  0  0  0
   14.2210  -19.6120   -8.6810 C   0  0  0  0  0
   15.6480  -19.0380   -8.9730 C   0  0  0  0  0
   13.3010  -18.8840   -7.9650 C   0  0  0  0  0
   12.0340  -19.4040   -7.7080 C   0  0  0  0  0
    4.1600  -30.4060   -9.7890 N   0  0  0  0  0
    3.7430  -30.8530   -8.4670 C   0  0  0  0  0
    2.7490  -31.7930   -8.3920 N   0  0  0  0  0
    2.3300  -32.2410   -7.1860 C   0  0  0  0  0
    2.8620  -31.7980   -6.0310 N   0  0  0  0  0
    3.8470  -30.8580   -5.9930 C   0  0  0  0  0
    4.3370  -30.3400   -7.2660 C   0  0  0  0  0
    5.3600  -29.4110   -6.8670 C   0  0  0  0  0
    6.2730  -28.5430   -7.7510 C   0  0  0  0  0
    8.3470  -29.2580   -6.3520 C   0  0  0  0  0
    8.4850  -27.7230   -8.2820 C   0  0  0  0  0
    8.8100  -26.1640  -10.1880 N   0  0  0  0  0
   10.5410  -24.2650  -10.3290 C   0  0  0  0  0
   12.2960  -22.7980   -9.4410 C   0  0  0  0  0
   12.6500  -21.3840   -8.9010 C   0  0  0  0  0
   15.8950  -18.0480   -8.1410 F   0  0  0  0  0
   15.6860  -18.6010  -10.2220 F   0  0  0  0  0
   16.5300  -19.9880   -8.8020 F   0  0  0  0  0
   13.6190  -17.6860   -7.5200 F   0  0  0  0  0
   11.7050  -20.6480   -8.1750 C   0  0  0  0  0
   13.1480  -23.5980   -9.6280 O   0  0  0  0  0
    9.5350  -24.9920   -8.3150 O   0  0  0  0  0
    6.5700  -27.0370   -9.6040 C   0  0  0  0  0
    5.7380  -27.8260   -8.7940 C   0  0  0  0  0
    5.4330  -29.4040   -5.4910 N   0  0  0  0  0
    4.5410  -30.2570   -4.9910 N   0  0  0  0  0
    4.4570  -30.4280   -3.5360 C   0  0  0  0  0
    3.9480  -31.7930   -3.0870 C   0  0  0  0  0
    3.6760  -29.2520   -2.9770 C   0  0  0  0  0
   10.3482  -23.1778   -8.7467 H   0  0  0  0  0
   10.4878  -22.3380  -10.4099 H   0  0  0  0  0
   14.6236  -21.4537   -9.7178 H   0  0  0  0  0
   11.3087  -18.8233   -7.1381 H   0  0  0  0  0
    3.7148  -30.7917  -10.6217 H   0  0  0  0  0
    4.8972  -29.7073   -9.8821 H   0  0  0  0  0
    1.5349  -32.9857   -7.1481 H   0  0  0  0  0
    7.9209  -28.9388   -5.4009 H   0  0  0  0  0
    8.1760  -30.3259   -6.4880 H   0  0  0  0  0
    9.4182  -29.0567   -6.3575 H   0  0  0  0  0
    9.5565  -27.6762   -8.0874 H   0  0  0  0  0
    8.8609  -26.3023  -11.1973 H   0  0  0  0  0
   10.0469  -24.0249  -11.2705 H   0  0  0  0  0
   11.4776  -24.8088  -10.4520 H   0  0  0  0  0
   10.7153  -21.0626   -7.9834 H   0  0  0  0  0
    6.1452  -26.4626  -10.4272 H   0  0  0  0  0
    4.6671  -27.8699   -8.9925 H   0  0  0  0  0
    5.4635  -30.4224   -3.1176 H   0  0  0  0  0
    2.9456  -31.9540   -3.4837 H   0  0  0  0  0
    4.6165  -32.5692   -3.4595 H   0  0  0  0  0
    3.9192  -31.8284   -1.9980 H   0  0  0  0  0
    4.1941  -28.3245   -3.2209 H   0  0  0  0  0
    2.6783  -29.2385   -3.4158 H   0  0  0  0  0
    3.5969  -29.3517   -1.8945 H   0  0  0  0  0
  1 18  4  0  0  0
  1 19  1  0  0  0
 20  1  4  0  0  0
  2 20  4  0  0  0
 21  2  1  0  0  0
  2 32  4  0  0  0
  3 21  1  0  0  0
 22  3  1  0  0  0
  3 31  2  0  0  0
  4 22  1  0  0  0
 23  4  1  0  0  0
  5  6  4  0  0  0
 24  5  4  0  0  0
  6  7  1  0  0  0
  6  8  4  0  0  0
  7 25  1  0  0  0
  7 26  1  0  0  0
  7 27  1  0  0  0
  8  9  4  0  0  0
  8 28  1  0  0  0
  9 29  4  0  0  0
 11 10  1  0  0  0
 11 12  4  0  0  0
 16 11  4  0  0  0
 12 13  4  0  0  0
 14 13  4  0  0  0
 15 14  4  0  0  0
 16 15  4  0  0  0
 15 35  4  0  0  0
 17 16  4  0  0  0
 18 17  1  0  0  0
 17 34  4  0  0  0
 18 33  4  0  0  0
 23 24  1  0  0  0
 23 30  2  0  0  0
 24 29  4  0  0  0
 32 33  4  0  0  0
 34 35  4  0  0  0
 35 36  1  0  0  0
 36 37  1  0  0  0
 36 38  1  0  0  0
  4 39  1  0  0  0
  4 40  1  0  0  0
  5 41  1  0  0  0
  9 42  1  0  0  0
 10 43  1  0  0  0
 10 44  1  0  0  0
 13 45  1  0  0  0
 19 46  1  0  0  0
 19 47  1  0  0  0
 19 48  1  0  0  0
 20 49  1  0  0  0
 21 50  1  0  0  0
 22 51  1  0  0  0
 22 52  1  0  0  0
 29 53  1  0  0  0
 32 54  1  0  0  0
 33 55  1  0  0  0
 36 56  1  0  0  0
 37 57  1  0  0  0
 37 58  1  0  0  0
 37 59  1  0  0  0
 38 60  1  0  0  0
 38 61  1  0  0  0
 38 62  1  0  0  0
M  END
$$$$
