5nyh_ligand
  -I-interpret- 

 59 63  0  0  0  0  0  0  0  0999 V2000
   -0.1620   33.7110   21.7930 C   0  0  0  0  0
   -1.2960   32.6640   23.7750 C   0  0  0  0  0
   -0.0500   31.8070   25.6150 C   0  0  0  0  0
    1.1580   32.1350   24.9810 C   0  0  0  0  0
    2.2130   31.7700   25.9080 C   0  0  0  0  0
    3.6720   32.0490   25.6960 C   0  0  0  0  0
    5.8190   31.4030   24.6350 C   0  0  0  0  0
    3.8890   29.9850   24.3450 C   0  0  0  0  0
    1.2170   35.5700   22.6790 C   0  0  0  0  0
    2.5660   35.7920   22.5200 C   0  0  0  0  0
    1.2830   36.7850   24.7470 C   0  0  0  0  0
    0.3960   35.5850   20.3680 C   0  0  0  0  0
    5.3690   38.9710   26.2050 C   0  0  0  0  0
    3.7110   38.6490   27.7900 C   0  0  0  0  0
    2.7030   38.2080   26.7590 C   0  0  0  0  0
    0.4690   34.9060   21.6520 N   0  0  0  0  0
   -0.7980   33.2150   20.8950 O   0  0  0  0  0
   -0.0990   33.0200   23.1240 C   0  0  0  0  0
    1.1230   32.7360   23.7300 C   0  0  0  0  0
   -1.2780   32.0580   25.0210 C   0  0  0  0  0
   -2.4840   32.9000   23.1810 O   0  0  0  0  0
    1.6230   31.2520   26.9930 N   0  0  0  0  0
    0.2840   31.2840   26.8160 N   0  0  0  0  0
    4.4010   31.2150   24.9440 N   0  0  0  0  0
    6.2420   30.0610   24.1000 C   0  0  0  0  0
    5.0470   29.4690   23.5320 C   0  0  0  0  0
    4.1380   33.0200   26.2430 O   0  0  0  0  0
    2.6440   37.0150   24.5930 C   0  0  0  0  0
    3.2710   36.5100   23.4630 C   0  0  0  0  0
    0.5790   36.0670   23.7990 C   0  0  0  0  0
    3.3800   37.6940   25.5620 N   0  0  0  0  0
    4.4650   38.5450   25.0630 C   0  0  0  0  0
    4.6300   39.5630   27.2540 O   0  0  0  0  0
    6.3998   31.7081   25.5055 H   0  0  0  0  0
    5.9881   32.2097   23.9217 H   0  0  0  0  0
    3.0012   30.1590   23.7370 H   0  0  0  0  0
    3.5566   29.2667   25.0944 H   0  0  0  0  0
    3.0802   35.3979   21.6434 H   0  0  0  0  0
    0.7654   37.1744   25.6237 H   0  0  0  0  0
   -0.0739   36.5596   20.5000 H   0  0  0  0  0
    1.4023   35.7163   19.9701 H   0  0  0  0  0
   -0.1949   34.9862   19.6749 H   0  0  0  0  0
    6.0820   39.7038   25.8273 H   0  0  0  0  0
    5.8753   38.0875   26.5939 H   0  0  0  0  0
    4.2583   37.7716   28.1345 H   0  0  0  0  0
    3.1782   39.1349   28.6074 H   0  0  0  0  0
    2.0882   39.0630   26.4776 H   0  0  0  0  0
    2.0864   37.4159   27.1838 H   0  0  0  0  0
    2.0537   32.9862   23.2207 H   0  0  0  0  0
   -2.2066   31.7851   25.5223 H   0  0  0  0  0
   -3.1926   32.5997   23.7548 H   0  0  0  0  0
    6.6600   29.4337   24.8873 H   0  0  0  0  0
    7.0289   30.1618   23.3525 H   0  0  0  0  0
    4.9383   29.7388   22.4815 H   0  0  0  0  0
    5.0952   28.3806   23.5670 H   0  0  0  0  0
    4.3373   36.6835   23.3184 H   0  0  0  0  0
   -0.4880   35.8915   23.9361 H   0  0  0  0  0
    5.0515   37.9835   24.3357 H   0  0  0  0  0
    4.0357   39.4330   24.5991 H   0  0  0  0  0
 16  1  1  0  0  0
  1 17  2  0  0  0
  1 18  1  0  0  0
 18  2  4  0  0  0
  2 20  4  0  0  0
  2 21  1  0  0  0
  4  3  4  0  0  0
 20  3  4  0  0  0
  3 23  4  0  0  0
  4  5  4  0  0  0
 19  4  4  0  0  0
  5  6  1  0  0  0
  5 22  4  0  0  0
  6 24  1  0  0  0
  6 27  2  0  0  0
 24  7  1  0  0  0
  7 25  1  0  0  0
 24  8  1  0  0  0
  8 26  1  0  0  0
 10  9  4  0  0  0
  9 16  1  0  0  0
 30  9  4  0  0  0
 29 10  4  0  0  0
 28 11  4  0  0  0
 11 30  4  0  0  0
 16 12  1  0  0  0
 13 32  1  0  0  0
 33 13  1  0  0  0
 15 14  1  0  0  0
 14 33  1  0  0  0
 31 15  1  0  0  0
 18 19  4  0  0  0
 22 23  4  0  0  0
 26 25  1  0  0  0
 28 29  4  0  0  0
 28 31  1  0  0  0
 31 32  1  0  0  0
  7 34  1  0  0  0
  7 35  1  0  0  0
  8 36  1  0  0  0
  8 37  1  0  0  0
 10 38  1  0  0  0
 11 39  1  0  0  0
 12 40  1  0  0  0
 12 41  1  0  0  0
 12 42  1  0  0  0
 13 43  1  0  0  0
 13 44  1  0  0  0
 14 45  1  0  0  0
 14 46  1  0  0  0
 15 47  1  0  0  0
 15 48  1  0  0  0
 19 49  1  0  0  0
 20 50  1  0  0  0
 21 51  1  0  0  0
 25 52  1  0  0  0
 25 53  1  0  0  0
 26 54  1  0  0  0
 26 55  1  0  0  0
 29 56  1  0  0  0
 30 57  1  0  0  0
 32 58  1  0  0  0
 32 59  1  0  0  0
M  END
$$$$
