4zyu_ligand
  -I-interpret- 

 56 58  0  0  0  0  0  0  0  0999 V2000
   21.8780  -16.0030  -34.4060 C   0  0  0  0  0
   23.2540  -17.9560  -34.7780 C   0  0  0  0  0
   24.3400  -17.2880  -34.2360 C   0  0  0  0  0
   22.3040  -17.1390  -27.0280 N   0  0  0  0  0
   21.8970  -16.1220  -26.2580 C   0  0  0  0  0
   22.5750  -14.9660  -26.1940 N   0  0  0  0  0
   23.6990  -14.7460  -26.8970 C   0  0  0  0  0
   24.1630  -18.0070  -28.7620 S   0  0  0  0  0
   25.4330  -16.9740  -29.2070 C   0  0  0  0  0
   25.3100  -15.7660  -28.5360 C   0  0  0  0  0
   24.1890  -15.7470  -27.7220 C   0  0  0  0  0
   23.4220  -16.9040  -27.7210 C   0  0  0  0  0
   24.2690  -13.6650  -26.7860 O   0  0  0  0  0
   20.7240  -16.2580  -25.4770 N   0  0  0  0  0
   22.0270  -17.3080  -34.8660 C   0  0  0  0  0
   20.8230  -18.0570  -35.4560 C   0  0  0  0  0
   20.7650  -18.3220  -36.6430 O   0  0  0  0  0
   19.7850  -18.4350  -34.5630 N   0  0  0  0  0
   18.6370  -19.1450  -35.0030 C   0  0  0  0  0
   18.3990  -20.2870  -34.0370 C   0  0  0  0  0
   19.6420  -21.1490  -34.0200 C   0  0  0  0  0
   19.9680  -21.5460  -35.4460 C   0  0  0  0  0
   21.0290  -21.1520  -35.9990 O   0  0  0  0  0
   19.1680  -22.2730  -36.0890 O   0  0  0  0  0
   17.4180  -18.2480  -35.1160 C   0  0  0  0  0
   17.0380  -17.5580  -34.1300 O   0  0  0  0  0
   16.7790  -18.1930  -36.2030 O   0  0  0  0  0
   26.5240  -17.3520  -30.1770 C   0  0  0  0  0
   26.0540  -17.0660  -31.5930 C   0  0  0  0  0
   25.6990  -15.5970  -31.7350 C   0  0  0  0  0
   25.3790  -15.2670  -33.1820 C   0  0  0  0  0
   24.1950  -15.9790  -33.7870 C   0  0  0  0  0
   22.9660  -15.3350  -33.8630 C   0  0  0  0  0
   20.9095  -15.5073  -34.4721 H   0  0  0  0  0
   23.3606  -18.9812  -35.1325 H   0  0  0  0  0
   25.3062  -17.7869  -34.1614 H   0  0  0  0  0
   21.7999  -18.0241  -27.0814 H   0  0  0  0  0
   26.0084  -14.9352  -28.6367 H   0  0  0  0  0
   20.4136  -15.4878  -24.8846 H   0  0  0  0  0
   19.8669  -18.1891  -33.5765 H   0  0  0  0  0
   18.8114  -19.5325  -36.0068 H   0  0  0  0  0
   17.5367  -20.8745  -34.3524 H   0  0  0  0  0
   18.1943  -19.9003  -33.0387 H   0  0  0  0  0
   19.4705  -22.0392  -33.4148 H   0  0  0  0  0
   20.4747  -20.5944  -33.5874 H   0  0  0  0  0
   21.5280  -20.6111  -35.3825 H   0  0  0  0  0
   17.1940  -18.7721  -36.8465 H   0  0  0  0  0
   26.7532  -18.4127  -30.0747 H   0  0  0  0  0
   27.4206  -16.7697  -29.9644 H   0  0  0  0  0
   25.1726  -17.6704  -31.8074 H   0  0  0  0  0
   26.8531  -17.3112  -32.2926 H   0  0  0  0  0
   26.5479  -14.9940  -31.4128 H   0  0  0  0  0
   24.8249  -15.3821  -31.1203 H   0  0  0  0  0
   26.2477  -15.5779  -33.7623 H   0  0  0  0  0
   25.1362  -14.2046  -33.2033 H   0  0  0  0  0
   22.8576  -14.3133  -33.4990 H   0  0  0  0  0
 15  1  4  0  0  0
  1 33  4  0  0  0
  3  2  4  0  0  0
  2 15  4  0  0  0
 32  3  4  0  0  0
  4  5  1  0  0  0
 12  4  1  0  0  0
  6  5  4  0  0  0
  5 14  2  0  0  0
  7  6  1  0  0  0
 11  7  1  0  0  0
  7 13  2  0  0  0
  9  8  4  0  0  0
  8 12  4  0  0  0
  9 10  4  0  0  0
 28  9  1  0  0  0
 10 11  4  0  0  0
 11 12  4  0  0  0
 15 16  1  0  0  0
 16 17  2  0  0  0
 16 18  1  0  0  0
 18 19  1  0  0  0
 19 20  1  0  0  0
 19 25  1  0  0  0
 20 21  1  0  0  0
 21 22  1  0  0  0
 22 23  1  0  0  0
 22 24  2  0  0  0
 25 26  2  0  0  0
 25 27  1  0  0  0
 29 28  1  0  0  0
 30 29  1  0  0  0
 31 30  1  0  0  0
 31 32  1  0  0  0
 32 33  4  0  0  0
  1 34  1  0  0  0
  2 35  1  0  0  0
  3 36  1  0  0  0
  4 37  1  0  0  0
 10 38  1  0  0  0
 14 39  1  0  0  0
 18 40  1  0  0  0
 19 41  1  0  0  0
 20 42  1  0  0  0
 20 43  1  0  0  0
 21 44  1  0  0  0
 21 45  1  0  0  0
 23 46  1  0  0  0
 27 47  1  0  0  0
 28 48  1  0  0  0
 28 49  1  0  0  0
 29 50  1  0  0  0
 29 51  1  0  0  0
 30 52  1  0  0  0
 30 53  1  0  0  0
 31 54  1  0  0  0
 31 55  1  0  0  0
 33 56  1  0  0  0
M  END
$$$$
