6ow7_ligand
  -I-interpret- 

 59 61  0  0  0  0  0  0  0  0999 V2000
   15.2990   12.7530  -25.5120 C   0  0  0  0  0
   14.3070   12.8330  -24.3480 C   0  0  0  0  0
   14.7330   13.8330  -23.2610 C   0  0  0  0  0
   13.7310   14.0940  -22.1340 C   0  0  0  0  0
   13.0710   12.8290  -21.5950 C   0  0  0  0  0
   12.6070   13.1970  -20.1980 C   0  0  0  0  0
   13.5640   14.2300  -19.6930 C   0  0  0  0  0
   14.3860   14.7130  -20.8930 C   0  0  0  0  0
   12.9960   13.2860  -24.9630 C   0  0  0  0  0
   12.0090   10.1390  -25.7690 C   0  0  0  0  0
   10.7220   10.3620  -26.5210 C   0  0  0  0  0
    9.8940   11.5060  -25.8920 C   0  0  0  0  0
   10.7290   12.7680  -25.7190 C   0  0  0  0  0
    9.9830   13.8920  -25.0410 C   0  0  0  0  0
    8.6260   15.8800  -25.6430 C   0  0  0  0  0
    8.1750   16.2390  -24.3730 C   0  0  0  0  0
    7.4600   17.4170  -24.2510 C   0  0  0  0  0
    7.2260   18.1990  -25.3630 C   0  0  0  0  0
    7.7220   17.7680  -26.5730 C   0  0  0  0  0
   17.6830   13.0610  -24.8570 C   0  0  0  0  0
   16.6090   12.3160  -25.1180 N   0  0  0  0  0
   11.9930   12.3960  -25.0670 N   0  0  0  0  0
   12.1780   11.0600  -24.6370 N   0  3  0  0  0
    9.3680   14.7250  -25.9100 N   0  0  0  0  0
    8.4180   16.6340  -26.7290 N   0  0  0  0  0
   16.7070   10.9480  -24.9420 O   0  0  0  0  0
   12.8640   14.4260  -25.3510 O   0  0  0  0  0
    9.9720   14.0120  -23.8200 O   0  0  0  0  0
   18.7420   12.6230  -24.4650 O   0  0  0  0  0
   15.3989   13.7558  -25.9273 H   0  0  0  0  0
   14.9108   12.0249  -26.2243 H   0  0  0  0  0
   14.2413   11.8641  -23.8529 H   0  0  0  0  0
   14.8683   14.7880  -23.7688 H   0  0  0  0  0
   15.6135   13.4012  -22.7851 H   0  0  0  0  0
   13.0084   14.7579  -22.6085 H   0  0  0  0  0
   13.7610   11.9853  -21.5837 H   0  0  0  0  0
   12.2426   12.5043  -22.2247 H   0  0  0  0  0
   12.5957   12.3229  -19.5469 H   0  0  0  0  0
   11.5877   13.5828  -20.2135 H   0  0  0  0  0
   14.2149   13.8080  -18.9273 H   0  0  0  0  0
   13.0258   15.0612  -19.2374 H   0  0  0  0  0
   14.3934   15.8013  -20.9530 H   0  0  0  0  0
   15.4287   14.4081  -20.8045 H   0  0  0  0  0
   12.8329   10.3093  -26.4621 H   0  0  0  0  0
   11.9905    9.1240  -25.3720 H   0  0  0  0  0
   10.1336    9.4454  -26.4806 H   0  0  0  0  0
   10.9635   10.6333  -27.5487 H   0  0  0  0  0
    9.5482   11.1830  -24.9101 H   0  0  0  0  0
    9.0584   11.7325  -26.5543 H   0  0  0  0  0
   10.9581   13.1913  -26.6970 H   0  0  0  0  0
    8.3792   15.6120  -23.5051 H   0  0  0  0  0
    7.0818   17.7270  -23.2769 H   0  0  0  0  0
    6.6651   19.1304  -25.2861 H   0  0  0  0  0
    7.5381   18.3840  -27.4533 H   0  0  0  0  0
   17.6028   14.1377  -25.0065 H   0  0  0  0  0
   13.1196   10.9569  -24.2586 H   0  0  0  0  0
   11.4871   10.8399  -23.9197 H   0  0  0  0  0
    9.4573   14.4772  -26.8954 H   0  0  0  0  0
   15.8683   10.5370  -25.1639 H   0  0  0  0  0
  2  1  1  0  0  0
  1 21  1  0  0  0
  2  3  1  0  0  0
  9  2  1  0  0  0
  3  4  1  0  0  0
  4  5  1  0  0  0
  4  8  1  0  0  0
  5  6  1  0  0  0
  7  6  1  0  0  0
  8  7  1  0  0  0
 22  9  1  0  0  0
  9 27  2  0  0  0
 11 10  1  0  0  0
 10 23  1  0  0  0
 12 11  1  0  0  0
 13 12  1  0  0  0
 14 13  1  0  0  0
 13 22  1  0  0  0
 24 14  1  0  0  0
 14 28  2  0  0  0
 15 16  4  0  0  0
 15 24  1  0  0  0
 15 25  4  0  0  0
 16 17  4  0  0  0
 17 18  4  0  0  0
 18 19  4  0  0  0
 19 25  4  0  0  0
 21 20  1  0  0  0
 20 29  2  0  0  0
 21 26  1  0  0  0
 22 23  1  0  0  0
  1 30  1  0  0  0
  1 31  1  0  0  0
  2 32  1  0  0  0
  3 33  1  0  0  0
  3 34  1  0  0  0
  4 35  1  0  0  0
  5 36  1  0  0  0
  5 37  1  0  0  0
  6 38  1  0  0  0
  6 39  1  0  0  0
  7 40  1  0  0  0
  7 41  1  0  0  0
  8 42  1  0  0  0
  8 43  1  0  0  0
 10 44  1  0  0  0
 10 45  1  0  0  0
 11 46  1  0  0  0
 11 47  1  0  0  0
 12 48  1  0  0  0
 12 49  1  0  0  0
 13 50  1  0  0  0
 16 51  1  0  0  0
 17 52  1  0  0  0
 18 53  1  0  0  0
 19 54  1  0  0  0
 20 55  1  0  0  0
 23 56  1  0  0  0
 23 57  1  0  0  0
 24 58  1  0  0  0
 26 59  1  0  0  0
M  END
$$$$
