5zhn_ligand
  -I-interpret- 

 61 63  0  0  0  0  0  0  0  0999 V2000
   54.6730  125.8360   22.9310 C   0  0  0  0  0
   54.9830  124.6030   22.0710 C   0  0  0  0  0
   53.6920  124.0730   21.4230 C   0  0  0  0  0
   54.0000  123.3470   20.0970 C   0  0  0  0  0
   53.1030  123.8830   18.9650 C   0  0  0  0  0
   52.6210  122.7400   18.0560 C   0  0  0  0  0
   51.1360  122.4320   18.3070 C   0  0  0  0  0
   50.4880  121.7240   17.0880 C   0  0  0  0  0
   49.7060  120.5030   17.4390 N   0  3  0  0  0
   48.4770  120.7830   18.2240 C   0  0  0  0  0
   47.4530  119.8480   18.0080 C   0  0  0  0  0
   47.3970  118.6430   18.7340 C   0  0  0  0  0
   46.3510  117.7350   18.5060 C   0  0  0  0  0
   46.4370  120.1400   17.0840 C   0  0  0  0  0
   45.3750  119.2500   16.8840 C   0  0  0  0  0
   45.3300  118.0360   17.5800 C   0  0  0  0  0
   44.2650  117.1440   17.3650 C   0  0  0  0  0
   44.5350  116.3190   16.1810 N   0  0  0  0  0
   44.5050  114.9830   16.2200 C   0  0  0  0  0
   44.2730  114.4230   17.2970 O   0  0  0  0  0
   44.8330  114.2370   15.1010 C   0  0  0  0  0
   45.1970  114.6240   13.8080 C   0  0  0  0  0
   45.2640  115.8370   13.1600 C   0  0  0  0  0
   45.0310  116.9370   13.6930 O   0  0  0  0  0
   45.6250  115.9170   11.7830 N   0  0  0  0  0
   45.9150  114.8470   11.0670 C   0  0  0  0  0
   45.8830  113.6180   11.7220 N   0  0  0  0  0
   45.5120  113.5370   13.0170 C   0  0  0  0  0
   45.3410  112.1390   13.8430 S   0  0  0  0  0
   44.8880  112.9010   15.3060 C   0  0  0  0  0
   54.2405  126.6155   22.3037 H   0  0  0  0  0
   53.9650  125.5629   23.7135 H   0  0  0  0  0
   55.5942  126.2021   23.3844 H   0  0  0  0  0
   55.4122  123.8250   22.7023 H   0  0  0  0  0
   55.6885  124.8809   21.2880 H   0  0  0  0  0
   53.0319  124.9154   21.2164 H   0  0  0  0  0
   53.2200  123.3680   22.1073 H   0  0  0  0  0
   53.8089  122.2815   20.2248 H   0  0  0  0  0
   55.0433  123.5203   19.8333 H   0  0  0  0  0
   53.6798  124.5872   18.3654 H   0  0  0  0  0
   52.2332  124.3681   19.4079 H   0  0  0  0  0
   53.2068  121.8470   18.2737 H   0  0  0  0  0
   52.7465  123.0413   17.0160 H   0  0  0  0  0
   50.6125  123.3726   18.4783 H   0  0  0  0  0
   51.0618  121.7704   19.1701 H   0  0  0  0  0
   51.2975  121.4105   16.4288 H   0  0  0  0  0
   49.7946  122.4322   16.6343 H   0  0  0  0  0
   50.3064  119.9125   18.0145 H   0  0  0  0  0
   49.4151  120.0664   16.5643 H   0  0  0  0  0
   48.1029  121.7581   17.9122 H   0  0  0  0  0
   48.7444  120.7396   19.2798 H   0  0  0  0  0
   48.1655  118.4153   19.4727 H   0  0  0  0  0
   46.3274  116.7900   19.0486 H   0  0  0  0  0
   46.4755  121.0697   16.5163 H   0  0  0  0  0
   44.5795  119.5034   16.1832 H   0  0  0  0  0
   43.3477  117.7111   17.2063 H   0  0  0  0  0
   44.1560  116.4978   18.2360 H   0  0  0  0  0
   44.7530  116.7811   15.2982 H   0  0  0  0  0
   46.1684  114.9216   10.0095 H   0  0  0  0  0
   46.1427  112.7704   11.2175 H   0  0  0  0  0
   44.6783  112.3939   16.2478 H   0  0  0  0  0
  1  2  1  0  0  0
  2  3  1  0  0  0
  3  4  1  0  0  0
  4  5  1  0  0  0
  5  6  1  0  0  0
  6  7  1  0  0  0
  7  8  1  0  0  0
  8  9  1  0  0  0
  9 10  1  0  0  0
 10 11  1  0  0  0
 11 12  4  0  0  0
 11 14  4  0  0  0
 12 13  4  0  0  0
 13 16  4  0  0  0
 14 15  4  0  0  0
 15 16  4  0  0  0
 16 17  1  0  0  0
 17 18  1  0  0  0
 18 19  1  0  0  0
 19 20  2  0  0  0
 19 21  1  0  0  0
 21 22  4  0  0  0
 21 30  4  0  0  0
 22 23  1  0  0  0
 22 28  4  0  0  0
 23 24  2  0  0  0
 23 25  1  0  0  0
 25 26  2  0  0  0
 26 27  1  0  0  0
 27 28  1  0  0  0
 28 29  4  0  0  0
 29 30  4  0  0  0
  1 31  1  0  0  0
  1 32  1  0  0  0
  1 33  1  0  0  0
  2 34  1  0  0  0
  2 35  1  0  0  0
  3 36  1  0  0  0
  3 37  1  0  0  0
  4 38  1  0  0  0
  4 39  1  0  0  0
  5 40  1  0  0  0
  5 41  1  0  0  0
  6 42  1  0  0  0
  6 43  1  0  0  0
  7 44  1  0  0  0
  7 45  1  0  0  0
  8 46  1  0  0  0
  8 47  1  0  0  0
  9 48  1  0  0  0
  9 49  1  0  0  0
 10 50  1  0  0  0
 10 51  1  0  0  0
 12 52  1  0  0  0
 13 53  1  0  0  0
 14 54  1  0  0  0
 15 55  1  0  0  0
 17 56  1  0  0  0
 17 57  1  0  0  0
 18 58  1  0  0  0
 26 59  1  0  0  0
 27 60  1  0  0  0
 30 61  1  0  0  0
M  END
$$$$
