1x78_ligand
  -I-interpret- 

 31 33  0  0  0  0  0  0  0  0999 V2000
   32.2650   36.7640   35.7030 C   0  0  0  0  0
   30.9230   36.9990   36.1130 C   0  0  0  0  0
   30.4370   36.4310   37.3150 C   0  0  0  0  0
   31.2870   35.6010   38.1510 C   0  0  0  0  0
   32.6300   35.3740   37.7260 C   0  0  0  0  0
   33.1120   35.9530   36.5100 C   0  0  0  0  0
   29.2090   36.5180   37.9020 O   0  0  0  0  0
   29.2700   35.7920   39.0470 C   0  0  0  0  0
   30.5270   35.1870   39.2750 C   0  0  0  0  0
   34.3970   35.7390   36.1000 O   0  0  0  0  0
   30.0230   37.8700   35.2370 C   0  0  0  0  0
   29.4930   39.0590   35.9520 C   0  0  0  0  0
   29.0470   39.9600   36.5260 N   0  0  0  0  0
   28.0680   35.7120   39.9480 C   0  0  0  0  0
   26.7950   36.1430   39.4230 C   0  0  0  0  0
   25.6260   36.1150   40.2410 C   0  0  0  0  0
   25.7220   35.6590   41.5840 C   0  0  0  0  0
   26.9810   35.2230   42.1290 C   0  0  0  0  0
   28.1560   35.2500   41.3130 C   0  0  0  0  0
   24.5830   35.6430   42.3610 O   0  0  0  0  0
   32.6415   37.2015   34.7784 H   0  0  0  0  0
   33.2927   34.7557   38.3315 H   0  0  0  0  0
   30.8363   34.5573   40.1092 H   0  0  0  0  0
   34.8460   35.1788   36.7373 H   0  0  0  0  0
   29.1728   37.2625   34.9269 H   0  0  0  0  0
   30.6204   38.2260   34.3976 H   0  0  0  0  0
   26.7257   36.4929   38.3930 H   0  0  0  0  0
   24.6666   36.4408   39.8390 H   0  0  0  0  0
   27.0390   34.8735   43.1598 H   0  0  0  0  0
   29.1130   34.9233   41.7200 H   0  0  0  0  0
   24.7989   35.3139   43.2366 H   0  0  0  0  0
  1  2  4  0  0  0
  1  6  4  0  0  0
  2  3  4  0  0  0
  2 11  1  0  0  0
  3  4  4  0  0  0
  3  7  4  0  0  0
  4  5  4  0  0  0
  4  9  4  0  0  0
  5  6  4  0  0  0
  6 10  1  0  0  0
  7  8  4  0  0  0
  8  9  4  0  0  0
  8 14  1  0  0  0
 11 12  1  0  0  0
 12 13  3  0  0  0
 14 15  4  0  0  0
 14 19  4  0  0  0
 15 16  4  0  0  0
 16 17  4  0  0  0
 17 18  4  0  0  0
 17 20  1  0  0  0
 18 19  4  0  0  0
  1 21  1  0  0  0
  5 22  1  0  0  0
  9 23  1  0  0  0
 10 24  1  0  0  0
 11 25  1  0  0  0
 11 26  1  0  0  0
 15 27  1  0  0  0
 16 28  1  0  0  0
 18 29  1  0  0  0
 19 30  1  0  0  0
 20 31  1  0  0  0
M  END
$$$$
