4bqt_ligand
  -I-interpret- 

 29 31  0  0  0  0  0  0  0  0999 V2000
   27.7880  -26.6030   83.3710 O   0  0  0  0  0
   28.2700  -26.1000   84.4120 C   0  0  0  0  0
   29.0380  -26.8500   85.3220 N   0  0  0  0  0
   29.2590  -28.2620   85.0180 C   0  0  0  0  0
   30.2300  -29.0030   85.9500 C   0  0  0  0  0
   29.3940  -29.7770   86.9310 C   0  0  0  0  0
   28.6470  -28.8190   87.7040 N   0  3  0  0  0
   29.3700  -27.7680   88.3880 C   0  0  0  0  0
   30.3340  -27.0530   87.4600 C   0  0  0  0  0
   31.1590  -28.0690   86.7170 C   0  0  0  0  0
   29.5450  -26.2690   86.4980 C   0  0  0  0  0
   29.2880  -24.9410   86.7660 C   0  0  0  0  0
   28.5460  -24.2020   85.8650 C   0  0  0  0  0
   28.0430  -24.7750   84.7000 C   0  0  0  0  0
   29.7012  -28.2968   84.0224 H   0  0  0  0  0
   28.2927  -28.7548   85.1257 H   0  0  0  0  0
   30.8694  -29.6442   85.3432 H   0  0  0  0  0
   30.0265  -30.3834   87.5793 H   0  0  0  0  0
   28.7209  -30.4569   86.4087 H   0  0  0  0  0
   28.2029  -29.3622   88.4443 H   0  0  0  0  0
   28.0524  -28.3378   87.0292 H   0  0  0  0  0
   29.9437  -28.2176   89.1984 H   0  0  0  0  0
   28.6481  -27.0406   88.7594 H   0  0  0  0  0
   30.9967  -26.4015   88.0296 H   0  0  0  0  0
   31.8249  -27.5608   86.0195 H   0  0  0  0  0
   31.7549  -28.6452   87.4248 H   0  0  0  0  0
   29.6660  -24.4796   87.6783 H   0  0  0  0  0
   28.3505  -23.1495   86.0702 H   0  0  0  0  0
   27.4621  -24.1656   84.0078 H   0  0  0  0  0
  1  2  2  0  0  0
  2  3  1  0  0  0
  2 14  1  0  0  0
  3  4  1  0  0  0
  3 11  1  0  0  0
  4  5  1  0  0  0
  5  6  1  0  0  0
  5 10  1  0  0  0
  6  7  1  0  0  0
  7  8  1  0  0  0
  8  9  1  0  0  0
  9 10  1  0  0  0
  9 11  1  0  0  0
 11 12  2  0  0  0
 12 13  1  0  0  0
 13 14  2  0  0  0
  4 15  1  0  0  0
  4 16  1  0  0  0
  5 17  1  0  0  0
  6 18  1  0  0  0
  6 19  1  0  0  0
  7 20  1  0  0  0
  7 21  1  0  0  0
  8 22  1  0  0  0
  8 23  1  0  0  0
  9 24  1  0  0  0
 10 25  1  0  0  0
 10 26  1  0  0  0
 12 27  1  0  0  0
 13 28  1  0  0  0
 14 29  1  0  0  0
M  END
$$$$
