5d26_ligand
  -I-interpret- 

 54 55  0  0  0  0  0  0  0  0999 V2000
    1.2680   55.0010   24.7490 C   0  0  0  0  0
    0.8050   54.0840   23.8150 C   0  0  0  0  0
    2.2210   55.1020   22.1440 C   0  0  0  0  0
    5.5200   60.8540   21.5950 C   0  0  0  0  0
    4.6220   59.9680   22.2050 C   0  0  0  0  0
    2.6980   56.0370   23.0840 C   0  0  0  0  0
    2.1970   55.9730   24.3790 C   0  0  0  0  0
    1.2800   54.1070   22.5050 C   0  0  0  0  0
    4.8670   58.6810   21.4770 C   0  0  0  0  0
    6.2510   60.1150   20.5370 C   0  0  0  0  0
    5.7820   62.3030   21.8820 C   0  0  0  0  0
    4.1400   57.3930   21.6970 C   0  0  0  0  0
    7.3160   60.6310   19.6040 C   0  0  0  0  0
    4.3270   60.0040   24.6820 C   0  0  0  0  0
    2.7900   50.6600   19.5580 C   0  0  0  0  0
    2.1570   50.5470   23.4470 C   0  0  0  0  0
    3.6490   60.2250   23.3390 C   0  0  0  0  0
    2.8210   51.7310   20.6310 C   0  0  0  0  0
    1.2420   50.6030   22.2400 C   0  0  0  0  0
    5.7940   58.8610   20.5300 N   0  0  0  0  0
    3.6080   57.0480   22.8710 N   0  0  0  0  0
    1.5880   51.7650   21.4210 N   0  0  0  0  0
    6.5800   62.9260   21.1960 O   0  0  0  0  0
    4.0270   56.6980   20.7110 O   0  0  0  0  0
    0.6970   53.6800   20.1670 O   0  0  0  0  0
   -0.6350   52.6900   21.8050 O   0  0  0  0  0
    2.6370   56.8730   25.2990 O   0  0  0  0  0
    0.7080   53.0240   21.4430 S   0  0  0  0  0
    5.1450   62.9820   22.9430 N   0  0  0  0  0
    0.9039   54.9610   25.7756 H   0  0  0  0  0
    0.0642   53.3403   24.1086 H   0  0  0  0  0
    2.5840   55.1454   21.1171 H   0  0  0  0  0
    6.9089   61.4457   19.0051 H   0  0  0  0  0
    8.1626   60.9944   20.1865 H   0  0  0  0  0
    7.6441   59.8248   18.9479 H   0  0  0  0  0
    4.6806   58.9748   24.7441 H   0  0  0  0  0
    5.1718   60.6861   24.7777 H   0  0  0  0  0
    3.6130   60.1932   25.4835 H   0  0  0  0  0
    2.6613   49.6835   20.0248 H   0  0  0  0  0
    1.9593   50.8518   18.8789 H   0  0  0  0  0
    3.7272   50.6775   19.0018 H   0  0  0  0  0
    3.1914   50.4630   23.1136 H   0  0  0  0  0
    2.0363   51.4566   24.0354 H   0  0  0  0  0
    1.8991   49.6813   24.0570 H   0  0  0  0  0
    2.8092   59.5360   23.2484 H   0  0  0  0  0
    3.3032   61.2571   23.2822 H   0  0  0  0  0
    2.9339   52.6975   20.1399 H   0  0  0  0  0
    3.6479   51.5090   21.3055 H   0  0  0  0  0
    0.2070   50.6867   22.5716 H   0  0  0  0  0
    1.3612   49.6939   21.6506 H   0  0  0  0  0
    3.9032   57.5836   23.6873 H   0  0  0  0  0
    3.2675   57.4680   24.8868 H   0  0  0  0  0
    5.3554   63.9644   23.1192 H   0  0  0  0  0
    4.4743   62.4903   23.5335 H   0  0  0  0  0
  2  1  4  0  0  0
  1  7  4  0  0  0
  8  2  4  0  0  0
  3  6  4  0  0  0
  8  3  4  0  0  0
  5  4  4  0  0  0
 10  4  4  0  0  0
  4 11  1  0  0  0
  9  5  4  0  0  0
  5 17  1  0  0  0
  6  7  4  0  0  0
  6 21  1  0  0  0
  7 27  1  0  0  0
 28  8  1  0  0  0
 12  9  1  0  0  0
  9 20  4  0  0  0
 10 13  1  0  0  0
 20 10  4  0  0  0
 11 23  2  0  0  0
 11 29  1  0  0  0
 21 12  1  0  0  0
 12 24  2  0  0  0
 17 14  1  0  0  0
 18 15  1  0  0  0
 19 16  1  0  0  0
 22 18  1  0  0  0
 22 19  1  0  0  0
 22 28  1  0  0  0
 28 25  2  0  0  0
 28 26  2  0  0  0
  1 30  1  0  0  0
  2 31  1  0  0  0
  3 32  1  0  0  0
 13 33  1  0  0  0
 13 34  1  0  0  0
 13 35  1  0  0  0
 14 36  1  0  0  0
 14 37  1  0  0  0
 14 38  1  0  0  0
 15 39  1  0  0  0
 15 40  1  0  0  0
 15 41  1  0  0  0
 16 42  1  0  0  0
 16 43  1  0  0  0
 16 44  1  0  0  0
 17 45  1  0  0  0
 17 46  1  0  0  0
 18 47  1  0  0  0
 18 48  1  0  0  0
 19 49  1  0  0  0
 19 50  1  0  0  0
 21 51  1  0  0  0
 27 52  1  0  0  0
 29 53  1  0  0  0
 29 54  1  0  0  0
M  END
$$$$
