2w71_ligand
  -I-interpret- 

 35 37  0  0  0  0  0  0  0  0999 V2000
   32.3510   22.2820   24.0110 Cl  0  0  0  0  0
   33.3720   20.8150   23.9210 C   0  0  0  0  0
   33.3080   19.8790   24.9520 C   0  0  0  0  0
   34.0980   18.7300   24.8940 C   0  0  0  0  0
   34.9500   18.5250   23.8160 C   0  0  0  0  0
   35.0100   19.4710   22.7940 C   0  0  0  0  0
   36.1160   19.2150   21.4080 Cl  0  0  0  0  0
   34.2260   20.6150   22.8440 C   0  0  0  0  0
   34.3050   21.6170   21.7110 C   0  0  0  0  0
   34.9560   22.8750   22.0840 N   0  0  0  0  0
   36.1100   22.9850   22.7540 C   0  0  0  0  0
   34.5060   24.1100   21.7910 C   0  0  0  0  0
   33.2530   24.4870   21.0440 C   0  0  0  0  0
   35.3750   25.0060   22.2880 N   0  0  0  0  0
   36.3750   24.3380   22.8860 C   0  0  0  0  0
   37.5340   24.9860   23.5620 C   0  0  0  0  0
   38.4640   24.2410   24.2900 C   0  0  0  0  0
   39.5160   24.9170   24.9060 C   0  0  0  0  0
   39.6160   26.2500   24.7860 N   0  0  0  0  0
   38.7000   26.9630   24.0780 C   0  0  0  0  0
   37.6670   26.3310   23.4700 N   0  0  0  0  0
   38.8070   28.3090   23.9700 N   0  0  0  0  0
   32.6435   20.0439   25.8002 H   0  0  0  0  0
   34.0465   17.9928   25.6952 H   0  0  0  0  0
   35.5686   17.6287   23.7696 H   0  0  0  0  0
   33.2837   21.8538   21.4127 H   0  0  0  0  0
   34.8987   21.1652   20.9163 H   0  0  0  0  0
   36.7246   22.1649   23.1253 H   0  0  0  0  0
   33.2882   24.0627   20.0406 H   0  0  0  0  0
   32.3842   24.0972   21.5744 H   0  0  0  0  0
   33.1834   25.5728   20.9785 H   0  0  0  0  0
   38.3697   23.1584   24.3744 H   0  0  0  0  0
   40.2562   24.3639   25.4842 H   0  0  0  0  0
   39.5801   28.7971   24.4222 H   0  0  0  0  0
   38.1144   28.8345   23.4365 H   0  0  0  0  0
  1  2  1  0  0  0
  2  3  4  0  0  0
  2  8  4  0  0  0
  3  4  4  0  0  0
  4  5  4  0  0  0
  5  6  4  0  0  0
  6  7  1  0  0  0
  6  8  4  0  0  0
  8  9  1  0  0  0
  9 10  1  0  0  0
 10 11  4  0  0  0
 10 12  4  0  0  0
 11 15  4  0  0  0
 12 13  1  0  0  0
 12 14  4  0  0  0
 14 15  4  0  0  0
 15 16  1  0  0  0
 16 17  4  0  0  0
 16 21  4  0  0  0
 17 18  4  0  0  0
 18 19  4  0  0  0
 19 20  4  0  0  0
 20 21  4  0  0  0
 20 22  1  0  0  0
  3 23  1  0  0  0
  4 24  1  0  0  0
  5 25  1  0  0  0
  9 26  1  0  0  0
  9 27  1  0  0  0
 11 28  1  0  0  0
 13 29  1  0  0  0
 13 30  1  0  0  0
 13 31  1  0  0  0
 17 32  1  0  0  0
 18 33  1  0  0  0
 22 34  1  0  0  0
 22 35  1  0  0  0
M  END
$$$$
