### 
### Created by X-TOOL on Mon Sep 10 21:13:24 2018
### 

@<TRIPOS>MOLECULE
3wsy_ligand
  184   185     1     0     0
SMALL
GAST_HUCK


@<TRIPOS>ATOM
      1 N          20.8940   19.1780   57.3670 N.4       1 LEU         0.2379
      2 CA         21.6300   17.9900   56.7860 C.3       1 LEU         0.0654
      3 C          23.1010   18.3730   56.4830 C.2       1 LEU         0.2292
      4 O          23.3420   19.2610   55.6660 O.2       1 LEU        -0.3905
      5 CB         20.8330   17.4100   55.5780 C.3       1 LEU         0.0102
      6 CG         21.2460   16.4280   54.4580 C.3       1 LEU        -0.0394
      7 CD1        22.0760   15.2610   54.9540 C.3       1 LEU        -0.0623
      8 CD2        20.0420   15.9370   53.6450 C.3       1 LEU        -0.0623
      9 N          24.0800   17.7220   57.1620 N.am      1 PRO        -0.2471
     10 CA         25.4600   18.2220   57.2870 C.3       1 PRO         0.1339
     11 C          26.1900   18.4210   55.9640 C.2       1 PRO         0.2041
     12 O          26.1570   17.5430   55.1040 O.2       1 PRO        -0.3944
     13 CB         26.1540   17.1320   58.0990 C.3       1 PRO        -0.0104
     14 CG         25.3940   15.9070   57.7660 C.3       1 PRO        -0.0281
     15 CD         23.9690   16.3580   57.7000 C.3       1 PRO         0.0371
     16 N          26.8620   19.5650   55.8430 N.am      1 GLN        -0.2636
     17 CA         27.4420   20.0540   54.5820 C.3       1 GLN         0.1330
     18 C          28.7220   19.3520   54.0930 C.2       1 GLN         0.2041
     19 O          29.0170   19.3940   52.9010 O.2       1 GLN        -0.3944
     20 CB         27.6650   21.5880   54.6300 C.3       1 GLN         0.0045
     21 CG         28.6230   22.1000   55.7150 C.3       1 GLN         0.0412
     22 CD         29.3170   23.4170   55.3530 C.2       1 GLN         0.1737
     23 OE1        29.0670   24.4490   55.9740 O.2       1 GLN        -0.3973
     24 NE2        30.1970   23.3820   54.3490 N.am      1 GLN        -0.3009
     25 N          29.4850   18.7310   54.9900 N.am      1 ASP        -0.2622
     26 CA         30.7660   18.1260   54.5920 C.3       1 ASP         0.1423
     27 C          31.0000   16.7050   55.1350 C.2       1 ASP         0.2056
     28 O          32.1230   16.3250   55.4820 O.2       1 ASP        -0.3943
     29 CB         31.9200   19.0500   54.9720 C.3       1 ASP         0.0406
     30 CG         31.8830   19.4520   56.4270 C.2       1 ASP         0.0393
     31 OD1        31.3150   18.6970   57.2510 O.co2     1 ASP        -0.5688
     32 OD2        32.4260   20.5320   56.7430 O.co2     1 ASP        -0.5688
     33 N          29.9180   15.9390   55.2050 N.am      1 ARG        -0.2636
     34 CA         29.9480   14.5470   55.5940 C.3       1 ARG         0.1311
     35 C          28.9810   13.7980   54.7200 C.2       1 ARG         0.2037
     36 O          27.9030   14.2930   54.3970 O.2       1 ARG        -0.3944
     37 CB         29.4840   14.3830   57.0350 C.3       1 ARG        -0.0092
     38 CG         30.2930   15.1680   58.0390 C.3       1 ARG        -0.0156
     39 CD         29.5270   15.3150   59.3370 C.3       1 ARG         0.0627
     40 NE         30.4290   15.5660   60.4490 N.pl3     1 ARG        -0.2723
     41 CZ         31.1480   14.6230   61.0410 C.cat     1 ARG         0.2882
     42 NH1        31.0810   13.3610   60.6290 N.pl3     1 ARG        -0.2849
     43 NH2        31.9430   14.9440   62.0450 N.pl3     1 ARG        -0.2849
     44 N          29.3590   12.5850   54.3620 N.am      1 GLY        -0.2664
     45 CA         28.4480   11.6960   53.6800 C.3       1 GLY         0.1201
     46 C          28.3940   12.0400   52.2210 C.2       1 GLY         0.2009
     47 O          27.3530   12.4820   51.7140 O.2       1 GLY        -0.3947
     48 N          29.5360   11.8460   51.5590 N.am      1 PHE        -0.2622
     49 CA         29.6610   12.1020   50.1260 C.3       1 PHE         0.1404
     50 C          30.0900   10.8760   49.3540 C.2       1 PHE         0.2060
     51 O          30.9290   10.0840   49.7850 O.2       1 PHE        -0.3942
     52 CB         30.5400   13.3160   49.8480 C.3       1 PHE         0.0214
     53 CG         29.8740   14.5980   50.2140 C.ar      1 PHE        -0.0386
     54 CD1        30.0270   15.1360   51.4890 C.ar      1 PHE        -0.0601
     55 CD2        29.0250   15.2330   49.3180 C.ar      1 PHE        -0.0601
     56 CE1        29.3750   16.3120   51.8470 C.ar      1 PHE        -0.0686
     57 CE2        28.3710   16.4110   49.6700 C.ar      1 PHE        -0.0686
     58 CZ         28.5400   16.9460   50.9360 C.ar      1 PHE        -0.0687
     59 N          29.4850   10.7570   48.1890 N.am      1 LEU        -0.2636
     60 CA         29.3760    9.5010   47.5180 C.3       1 LEU         0.1312
     61 C          29.9540    9.6210   46.1310 C.2       1 LEU         0.2039
     62 O          29.7670   10.6440   45.4710 O.2       1 LEU        -0.3944
     63 CB         27.8950    9.2010   47.4210 C.3       1 LEU        -0.0101
     64 CG         27.3190    7.8020   47.4600 C.3       1 LEU        -0.0425
     65 CD1        28.1760    6.7810   48.1910 C.3       1 LEU        -0.0625
     66 CD2        25.9590    7.9700   48.1170 C.3       1 LEU        -0.0625
     67 N          30.6520    8.5820   45.6840 N.am      1 VAL        -0.2635
     68 CA         31.2580    8.5800   44.3530 C.3       1 VAL         0.1332
     69 C          31.1030    7.1930   43.7570 C.2       1 VAL         0.2042
     70 O          31.3760    6.1920   44.4410 O.2       1 VAL        -0.3944
     71 CB         32.7680    8.8910   44.4140 C.3       1 VAL        -0.0063
     72 CG1        33.3300    9.0360   43.0150 C.3       1 VAL        -0.0584
     73 CG2        33.0340   10.1420   45.2340 C.3       1 VAL        -0.0584
     74 N          30.6960    7.1170   42.4920 N.am      1 VAL        -0.2635
     75 CA         30.6150    5.8150   41.8190 C.3       1 VAL         0.1332
     76 C          31.8800    5.5730   40.9780 C.2       1 VAL         0.2036
     77 O          32.4550    6.5370   40.4800 O.2       1 VAL        -0.3944
     78 CB         29.3600    5.7540   40.9490 C.3       1 VAL        -0.0063
     79 CG1        29.1580    4.3620   40.4060 C.3       1 VAL        -0.0584
     80 CG2        28.1500    6.1450   41.7670 C.3       1 VAL        -0.0584
     81 N          32.3290    4.3270   40.8110 N.am      1 GLN        -0.2693
     82 CA         33.5420    4.1130   40.0090 C.3       1 GLN         0.0964
     83 C          33.4120    3.3930   38.6670 C.2       1 GLN         0.0602
     84 O          32.8160    2.3250   38.5810 O.co2     1 GLN        -0.5666
     85 CB         34.6360    3.4940   40.8450 C.3       1 GLN        -0.0010
     86 CG         35.6990    4.5040   41.2260 C.3       1 GLN         0.0407
     87 CD         37.0530    3.8480   41.4420 C.2       1 GLN         0.1737
     88 OE1        37.4440    2.8890   40.7360 O.2       1 GLN        -0.3973
     89 NE2        37.7860    4.3610   42.4250 N.am      1 GLN        -0.3009
     90 OXT        33.9010    3.8680   37.6480 O.co2     1 GLN        -0.5666
     91 H1         19.9391   18.9197   57.5607 H         1 LEU         0.2015
     92 H2         20.9088   19.9386   56.7057 H         1 LEU         0.2015
     93 H3         21.3438   19.4669   58.2215 H         1 LEU         0.2015
     94 H4         21.6588   17.2035   57.5544 H         1 LEU         0.1098
     95 H5         20.4991   18.3043   55.0315 H         1 LEU         0.0348
     96 H6         19.9660   16.9219   56.0470 H         1 LEU         0.0348
     97 H7         21.8857   16.9974   53.7677 H         1 LEU         0.0299
     98 H8         22.3322   14.6072   54.1073 H         1 LEU         0.0232
     99 H9         21.4992   14.6901   55.6965 H         1 LEU         0.0232
    100 H10        22.9991   15.6385   55.4181 H         1 LEU         0.0232
    101 H11        19.4572   16.8014   53.2974 H         1 LEU         0.0232
    102 H12        19.4093   15.2966   54.2771 H         1 LEU         0.0232
    103 H13        20.3958   15.3608   52.7773 H         1 LEU         0.0232
    104 H14        25.4613   19.1767   57.8333 H         1 PRO         0.0802
    105 H15        26.0962   17.3485   59.1759 H         1 PRO         0.0313
    106 H16        27.2082   17.0324   57.8011 H         1 PRO         0.0313
    107 H17        25.5246   15.1437   58.5472 H         1 PRO         0.0287
    108 H18        25.7182   15.4993   56.7972 H         1 PRO         0.0287
    109 H19        23.3811   15.7146   57.0289 H         1 PRO         0.0524
    110 H20        23.5090   16.3630   58.6992 H         1 PRO         0.0524
    111 H21        26.9798   20.1274   56.6614 H         1 GLN         0.1883
    112 H22        26.6809   19.8636   53.8110 H         1 GLN         0.0801
    113 H23        26.6871   22.0644   54.7938 H         1 GLN         0.0337
    114 H24        28.0659   21.8996   53.6542 H         1 GLN         0.0337
    115 H25        29.3957   21.3357   55.8847 H         1 GLN         0.0504
    116 H26        28.0490   22.2531   56.6408 H         1 GLN         0.0504
    117 H27        30.6762   24.2158   54.0749 H         1 GLN         0.1814
    118 H28        30.3767   22.5220   53.8714 H         1 GLN         0.1814
    119 H29        29.1850   18.6752   55.9423 H         1 ASP         0.1884
    120 H30        30.7527   18.0458   53.4950 H         1 ASP         0.0819
    121 H31        31.8635   19.9579   54.3536 H         1 ASP         0.0478
    122 H32        32.8687   18.5297   54.7737 H         1 ASP         0.0478
    123 H33        29.0342   16.3471   54.9762 H         1 ARG         0.1883
    124 H34        30.9657   14.1462   55.4771 H         1 ARG         0.0800
    125 H35        29.5477   13.3170   57.2987 H         1 ARG         0.0313
    126 H36        28.4373   14.7150   57.1003 H         1 ARG         0.0313
    127 H37        30.5076   16.1664   57.6301 H         1 ARG         0.0301
    128 H38        31.2384   14.6406   58.2341 H         1 ARG         0.0301
    129 H39        28.9664   14.3886   59.5307 H         1 ARG         0.0689
    130 H40        28.8245   16.1566   59.2467 H         1 ARG         0.0689
    131 H41        30.5142   16.5318   60.7967 H         1 ARG         0.2642
    132 H42        31.6441   12.6361   61.0963 H         1 ARG         0.2615
    133 H43        30.4660   13.1080   59.8425 H         1 ARG         0.2615
    134 H44        31.9974   15.9209   62.3668 H         1 ARG         0.2615
    135 H45        32.5088   14.2175   62.5064 H         1 ARG         0.2615
    136 H46        30.2885   12.2776   54.5658 H         1 GLY         0.1881
    137 H47        27.4434   11.7986   54.1161 H         1 GLY         0.0763
    138 H48        28.7945   10.6586   53.7974 H         1 GLY         0.0763
    139 H49        30.3344   11.5137   52.0612 H         1 PHE         0.1885
    140 H50        28.6539   12.3571   49.7645 H         1 PHE         0.0823
    141 H51        30.7823   13.3380   48.7753 H         1 PHE         0.0474
    142 H52        31.4676   13.2211   50.4316 H         1 PHE         0.0474
    143 H53        30.6609   14.6333   52.2105 H         1 PHE         0.0557
    144 H54        28.8693   14.8072   48.3334 H         1 PHE         0.0557
    145 H55        29.5186   16.7328   52.8356 H         1 PHE         0.0599
    146 H56        27.7292   16.9095   48.9525 H         1 PHE         0.0599
    147 H57        28.0223   17.8566   51.2151 H         1 PHE         0.0559
    148 H58        29.0904   11.5707   47.7621 H         1 LEU         0.1883
    149 H59        29.8983    8.7121   48.0791 H         1 LEU         0.0800
    150 H60        27.5627    9.6357   46.4667 H         1 LEU         0.0315
    151 H61        27.4239    9.7427   48.2545 H         1 LEU         0.0315
    152 H62        27.1862    7.4433   46.4287 H         1 LEU         0.0298
    153 H63        27.6785    5.8002   48.1668 H         1 LEU         0.0232
    154 H64        28.3123    7.0973   49.2357 H         1 LEU         0.0232
    155 H65        29.1572    6.7066   47.6994 H         1 LEU         0.0232
    156 H66        25.3720    8.7147   47.5595 H         1 LEU         0.0232
    157 H67        26.0925    8.3103   49.1545 H         1 LEU         0.0232
    158 H68        25.4281    7.0066   48.1125 H         1 LEU         0.0232
    159 H69        30.7656    7.7816   46.2726 H         1 VAL         0.1883
    160 H70        30.7531    9.3249   43.7204 H         1 VAL         0.0802
    161 H71        33.2743    8.0462   44.9039 H         1 VAL         0.0343
    162 H72        34.4059    9.2573   43.0732 H         1 VAL         0.0234
    163 H73        32.8143    9.8574   42.4960 H         1 VAL         0.0234
    164 H74        33.1780    8.0987   42.4598 H         1 VAL         0.0234
    165 H75        32.6177   10.0137   46.2441 H         1 VAL         0.0234
    166 H76        32.5582   11.0068   44.7485 H         1 VAL         0.0234
    167 H77        34.1187   10.3113   45.3033 H         1 VAL         0.0234
    168 H78        30.4446    7.9496   41.9985 H         1 VAL         0.1883
    169 H79        30.5486    5.0269   42.5835 H         1 VAL         0.0802
    170 H80        29.4727    6.4555   40.1092 H         1 VAL         0.0343
    171 H81        28.2513    4.3392   39.7836 H         1 VAL         0.0234
    172 H82        29.0471    3.6550   41.2414 H         1 VAL         0.0234
    173 H83        30.0281    4.0762   39.7968 H         1 VAL         0.0234
    174 H84        28.2902    7.1602   42.1668 H         1 VAL         0.0234
    175 H85        28.0259    5.4370   42.5996 H         1 VAL         0.0234
    176 H86        27.2537    6.1224   41.1297 H         1 VAL         0.0234
    177 H87        31.8488    3.5532   41.2241 H         1 GLN         0.1875
    178 H88        33.8878    5.1248   39.7507 H         1 GLN         0.0727
    179 H89        35.1066    2.6829   40.2700 H         1 GLN         0.0330
    180 H90        34.1916    3.0826   41.7633 H         1 GLN         0.0330
    181 H91        35.3950    5.0065   42.1561 H         1 GLN         0.0504
    182 H92        35.7885    5.2472   40.4200 H         1 GLN         0.0504
    183 H93        38.6888    3.9809   42.6262 H         1 GLN         0.1814
    184 H94        37.4347    5.1270   42.9633 H         1 GLN         0.1814
@<TRIPOS>BOND
     1    1    2 1  
     2    2    3 1  
     3    2    5 1  
     4    3    4 2  
     5    3    9 am 
     6    5    6 1  
     7    6    7 1  
     8    6    8 1  
     9    9   10 1  
    10    9   15 1  
    11   10   11 1  
    12   10   13 1  
    13   11   12 2  
    14   11   16 am 
    15   13   14 1  
    16   14   15 1  
    17   16   17 1  
    18   17   18 1  
    19   17   20 1  
    20   18   19 2  
    21   18   25 am 
    22   20   21 1  
    23   21   22 1  
    24   22   23 2  
    25   22   24 am 
    26   25   26 1  
    27   26   27 1  
    28   26   29 1  
    29   27   28 2  
    30   27   33 am 
    31   29   30 1  
    32   30   31 ar 
    33   30   32 ar 
    34   33   34 1  
    35   34   35 1  
    36   34   37 1  
    37   35   36 2  
    38   35   44 am 
    39   37   38 1  
    40   38   39 1  
    41   39   40 1  
    42   40   41 ar 
    43   41   42 ar 
    44   41   43 ar 
    45   44   45 1  
    46   45   46 1  
    47   46   47 2  
    48   46   48 am 
    49   48   49 1  
    50   49   50 1  
    51   49   52 1  
    52   50   51 2  
    53   50   59 am 
    54   52   53 1  
    55   53   54 ar 
    56   53   55 ar 
    57   54   56 ar 
    58   55   57 ar 
    59   56   58 ar 
    60   57   58 ar 
    61   59   60 1  
    62   60   61 1  
    63   60   63 1  
    64   61   62 2  
    65   61   67 am 
    66   63   64 1  
    67   64   65 1  
    68   64   66 1  
    69   67   68 1  
    70   68   69 1  
    71   68   71 1  
    72   69   70 2  
    73   69   74 am 
    74   71   72 1  
    75   71   73 1  
    76   74   75 1  
    77   75   76 1  
    78   75   78 1  
    79   76   77 2  
    80   76   81 am 
    81   78   79 1  
    82   78   80 1  
    83   81   82 1  
    84   82   83 1  
    85   82   85 1  
    86   83   84 ar 
    87   83   90 ar 
    88   85   86 1  
    89   86   87 1  
    90   87   88 2  
    91   87   89 am 
    92    1   91 1  
    93    1   92 1  
    94    1   93 1  
    95    2   94 1  
    96    5   95 1  
    97    5   96 1  
    98    6   97 1  
    99    7   98 1  
   100    7   99 1  
   101    7  100 1  
   102    8  101 1  
   103    8  102 1  
   104    8  103 1  
   105   10  104 1  
   106   13  105 1  
   107   13  106 1  
   108   14  107 1  
   109   14  108 1  
   110   15  109 1  
   111   15  110 1  
   112   16  111 1  
   113   17  112 1  
   114   20  113 1  
   115   20  114 1  
   116   21  115 1  
   117   21  116 1  
   118   24  117 1  
   119   24  118 1  
   120   25  119 1  
   121   26  120 1  
   122   29  121 1  
   123   29  122 1  
   124   33  123 1  
   125   34  124 1  
   126   37  125 1  
   127   37  126 1  
   128   38  127 1  
   129   38  128 1  
   130   39  129 1  
   131   39  130 1  
   132   40  131 1  
   133   42  132 1  
   134   42  133 1  
   135   43  134 1  
   136   43  135 1  
   137   44  136 1  
   138   45  137 1  
   139   45  138 1  
   140   48  139 1  
   141   49  140 1  
   142   52  141 1  
   143   52  142 1  
   144   54  143 1  
   145   55  144 1  
   146   56  145 1  
   147   57  146 1  
   148   58  147 1  
   149   59  148 1  
   150   60  149 1  
   151   63  150 1  
   152   63  151 1  
   153   64  152 1  
   154   65  153 1  
   155   65  154 1  
   156   65  155 1  
   157   66  156 1  
   158   66  157 1  
   159   66  158 1  
   160   67  159 1  
   161   68  160 1  
   162   71  161 1  
   163   72  162 1  
   164   72  163 1  
   165   72  164 1  
   166   73  165 1  
   167   73  166 1  
   168   73  167 1  
   169   74  168 1  
   170   75  169 1  
   171   78  170 1  
   172   79  171 1  
   173   79  172 1  
   174   79  173 1  
   175   80  174 1  
   176   80  175 1  
   177   80  176 1  
   178   81  177 1  
   179   82  178 1  
   180   85  179 1  
   181   85  180 1  
   182   86  181 1  
   183   86  182 1  
   184   89  183 1  
   185   89  184 1  
@<TRIPOS>SUBSTRUCTURE
     1 LEU         1

