3wsy_ligand
  -I-interpret- 

185186  0  0  0  0  0  0  0  0999 V2000
   20.8940   19.1780   57.3670 N   0  3  0  0  0
   21.6300   17.9900   56.7860 C   0  0  0  0  0
   23.1010   18.3730   56.4830 C   0  0  0  0  0
   23.3420   19.2610   55.6660 O   0  0  0  0  0
   20.8330   17.4100   55.5780 C   0  0  0  0  0
   21.2460   16.4280   54.4580 C   0  0  0  0  0
   22.0760   15.2610   54.9540 C   0  0  0  0  0
   20.0420   15.9370   53.6450 C   0  0  0  0  0
   24.0800   17.7220   57.1620 N   0  0  0  0  0
   25.4600   18.2220   57.2870 C   0  0  0  0  0
   26.1900   18.4210   55.9640 C   0  0  0  0  0
   26.1570   17.5430   55.1040 O   0  0  0  0  0
   26.1540   17.1320   58.0990 C   0  0  0  0  0
   25.3940   15.9070   57.7660 C   0  0  0  0  0
   23.9690   16.3580   57.7000 C   0  0  0  0  0
   26.8620   19.5650   55.8430 N   0  0  0  0  0
   27.4420   20.0540   54.5820 C   0  0  0  0  0
   28.7220   19.3520   54.0930 C   0  0  0  0  0
   29.0170   19.3940   52.9010 O   0  0  0  0  0
   27.6650   21.5880   54.6300 C   0  0  0  0  0
   28.6230   22.1000   55.7150 C   0  0  0  0  0
   29.3170   23.4170   55.3530 C   0  0  0  0  0
   29.0670   24.4490   55.9740 O   0  0  0  0  0
   30.1970   23.3820   54.3490 N   0  0  0  0  0
   29.4850   18.7310   54.9900 N   0  0  0  0  0
   30.7660   18.1260   54.5920 C   0  0  0  0  0
   31.0000   16.7050   55.1350 C   0  0  0  0  0
   32.1230   16.3250   55.4820 O   0  0  0  0  0
   31.9200   19.0500   54.9720 C   0  0  0  0  0
   31.8830   19.4520   56.4270 C   0  0  0  0  0
   31.3150   18.6970   57.2510 O   0  0  0  0  0
   32.4260   20.5320   56.7430 O   0  0  0  0  0
   29.9180   15.9390   55.2050 N   0  0  0  0  0
   29.9480   14.5470   55.5940 C   0  0  0  0  0
   28.9810   13.7980   54.7200 C   0  0  0  0  0
   27.9030   14.2930   54.3970 O   0  0  0  0  0
   29.4840   14.3830   57.0350 C   0  0  0  0  0
   30.2930   15.1680   58.0390 C   0  0  0  0  0
   29.5270   15.3150   59.3370 C   0  0  0  0  0
   30.4290   15.5660   60.4490 N   0  0  0  0  0
   31.1480   14.6230   61.0410 C   0  0  0  0  0
   31.0810   13.3610   60.6290 N   0  0  0  0  0
   31.9430   14.9440   62.0450 N   0  0  0  0  0
   29.3590   12.5850   54.3620 N   0  0  0  0  0
   28.4480   11.6960   53.6800 C   0  0  0  0  0
   28.3940   12.0400   52.2210 C   0  0  0  0  0
   27.3530   12.4820   51.7140 O   0  0  0  0  0
   29.5360   11.8460   51.5590 N   0  0  0  0  0
   29.6610   12.1020   50.1260 C   0  0  0  0  0
   30.0900   10.8760   49.3540 C   0  0  0  0  0
   30.9290   10.0840   49.7850 O   0  0  0  0  0
   30.5400   13.3160   49.8480 C   0  0  0  0  0
   29.8740   14.5980   50.2140 C   0  0  0  0  0
   30.0270   15.1360   51.4890 C   0  0  0  0  0
   29.0250   15.2330   49.3180 C   0  0  0  0  0
   29.3750   16.3120   51.8470 C   0  0  0  0  0
   28.3710   16.4110   49.6700 C   0  0  0  0  0
   28.5400   16.9460   50.9360 C   0  0  0  0  0
   29.4850   10.7570   48.1890 N   0  0  0  0  0
   29.3760    9.5010   47.5180 C   0  0  0  0  0
   29.9540    9.6210   46.1310 C   0  0  0  0  0
   29.7670   10.6440   45.4710 O   0  0  0  0  0
   27.8950    9.2010   47.4210 C   0  0  0  0  0
   27.3190    7.8020   47.4600 C   0  0  0  0  0
   28.1760    6.7810   48.1910 C   0  0  0  0  0
   25.9590    7.9700   48.1170 C   0  0  0  0  0
   30.6520    8.5820   45.6840 N   0  0  0  0  0
   31.2580    8.5800   44.3530 C   0  0  0  0  0
   31.1030    7.1930   43.7570 C   0  0  0  0  0
   31.3760    6.1920   44.4410 O   0  0  0  0  0
   32.7680    8.8910   44.4140 C   0  0  0  0  0
   33.3300    9.0360   43.0150 C   0  0  0  0  0
   33.0340   10.1420   45.2340 C   0  0  0  0  0
   30.6960    7.1170   42.4920 N   0  0  0  0  0
   30.6150    5.8150   41.8190 C   0  0  0  0  0
   31.8800    5.5730   40.9780 C   0  0  0  0  0
   32.4550    6.5370   40.4800 O   0  0  0  0  0
   29.3600    5.7540   40.9490 C   0  0  0  0  0
   29.1580    4.3620   40.4060 C   0  0  0  0  0
   28.1500    6.1450   41.7670 C   0  0  0  0  0
   32.3290    4.3270   40.8110 N   0  0  0  0  0
   33.5420    4.1130   40.0090 C   0  0  0  0  0
   33.4120    3.3930   38.6670 C   0  0  0  0  0
   32.8160    2.3250   38.5810 O   0  0  0  0  0
   34.6360    3.4940   40.8450 C   0  0  0  0  0
   35.6990    4.5040   41.2260 C   0  0  0  0  0
   37.0530    3.8480   41.4420 C   0  0  0  0  0
   37.4440    2.8890   40.7360 O   0  0  0  0  0
   37.7860    4.3610   42.4250 N   0  0  0  0  0
   33.9010    3.8680   37.6480 O   0  0  0  0  0
   21.4220   19.5508   58.1561 H   0  0  0  0  0
   20.7953   19.8983   56.6516 H   0  0  0  0  0
   19.9704   18.8827   57.6835 H   0  0  0  0  0
   21.6897   17.1764   57.5089 H   0  0  0  0  0
   20.7036   18.3180   54.9890 H   0  0  0  0  0
   20.1139   16.7890   56.1122 H   0  0  0  0  0
   21.8881   17.0069   53.7942 H   0  0  0  0  0
   21.4608   14.6229   55.5884 H   0  0  0  0  0
   22.4388   14.6866   54.1016 H   0  0  0  0  0
   22.9232   15.6371   55.5274 H   0  0  0  0  0
   20.3939   15.3663   52.7856 H   0  0  0  0  0
   19.4159   15.3026   54.2724 H   0  0  0  0  0
   19.4634   16.7944   53.3011 H   0  0  0  0  0
   25.4633   19.2138   57.7392 H   0  0  0  0  0
   26.1509   17.3449   59.1680 H   0  0  0  0  0
   27.2127   17.0430   57.8553 H   0  0  0  0  0
   25.5403   15.1209   58.5068 H   0  0  0  0  0
   25.7260   15.4621   56.8280 H   0  0  0  0  0
   23.3481   15.7090   57.0825 H   0  0  0  0  0
   23.4695   16.3245   58.6682 H   0  0  0  0  0
   26.9822   20.1386   56.6778 H   0  0  0  0  0
   26.6867   19.7929   53.8408 H   0  0  0  0  0
   26.6930   22.0302   54.8488 H   0  0  0  0  0
   28.1135   21.8604   53.6747 H   0  0  0  0  0
   29.4004   21.3471   55.8448 H   0  0  0  0  0
   28.0320   22.2794   56.6131 H   0  0  0  0  0
   30.6895   24.2314   54.0726 H   0  0  0  0  0
   30.3766   22.5059   53.8586 H   0  0  0  0  0
   29.1790   18.6741   55.9614 H   0  0  0  0  0
   30.7194   18.0103   53.5092 H   0  0  0  0  0
   31.8383   19.9554   54.3705 H   0  0  0  0  0
   32.8525   18.5143   54.7945 H   0  0  0  0  0
   30.9699   17.9272   56.7929 H   0  0  0  0  0
   29.0165   16.3552   54.9716 H   0  0  0  0  0
   30.9664   14.1717   55.4932 H   0  0  0  0  0
   29.5916   13.3286   57.2894 H   0  0  0  0  0
   28.4601   14.7532   57.0872 H   0  0  0  0  0
   30.4965   16.1590   57.6332 H   0  0  0  0  0
   31.2250   14.6380   58.2354 H   0  0  0  0  0
   28.9841   14.3896   59.5293 H   0  0  0  0  0
   28.8422   16.1580   59.2452 H   0  0  0  0  0
   30.5134   16.5224   60.7933 H   0  0  0  0  0
   31.6427   12.6441   61.0882 H   0  0  0  0  0
   30.4679   13.1095   59.8536 H   0  0  0  0  0
   32.0009   15.9123   62.3602 H   0  0  0  0  0
   30.3071   12.2715   54.5698 H   0  0  0  0  0
   27.4525   11.8019   54.1111 H   0  0  0  0  0
   28.7951   10.6691   53.7943 H   0  0  0  0  0
   30.3503   11.5071   52.0713 H   0  0  0  0  0
   28.6651   12.3464   49.7565 H   0  0  0  0  0
   30.7521   13.3402   48.7791 H   0  0  0  0  0
   31.4435   13.2222   50.4504 H   0  0  0  0  0
   30.6644   14.6306   52.2145 H   0  0  0  0  0
   28.8685   14.8048   48.3279 H   0  0  0  0  0
   29.5194   16.7351   52.8411 H   0  0  0  0  0
   27.7257   16.9122   48.9486 H   0  0  0  0  0
   28.0195   17.8616   51.2167 H   0  0  0  0  0
   29.0825   11.5870   47.7536 H   0  0  0  0  0
   29.9117    8.7145   48.0496 H   0  0  0  0  0
   27.6436    9.5396   46.4159 H   0  0  0  0  0
   27.4952    9.6540   48.3282 H   0  0  0  0  0
   27.2629    7.3895   46.4526 H   0  0  0  0  0
   29.1479    6.7083   47.7030 H   0  0  0  0  0
   28.3103    7.0956   49.2259 H   0  0  0  0  0
   27.6821    5.8097   48.1664 H   0  0  0  0  0
   26.0885    8.3853   49.1164 H   0  0  0  0  0
   25.3484    8.6455   47.5178 H   0  0  0  0  0
   25.4680    6.9993   48.1863 H   0  0  0  0  0
   30.7679    7.7656   46.2843 H   0  0  0  0  0
   30.7615    9.3439   43.7547 H   0  0  0  0  0
   33.2702    8.0578   44.9057 H   0  0  0  0  0
   33.1787    8.1066   42.4659 H   0  0  0  0  0
   32.8182    9.8501   42.5018 H   0  0  0  0  0
   34.3961    9.2552   43.0740 H   0  0  0  0  0
   32.5203   10.9890   44.7792 H   0  0  0  0  0
   32.6657    9.9945   46.2493 H   0  0  0  0  0
   34.1061   10.3369   45.2597 H   0  0  0  0  0
   30.4396    7.9663   41.9886 H   0  0  0  0  0
   30.5506    5.0274   42.5698 H   0  0  0  0  0
   29.4854    6.4469   40.1170 H   0  0  0  0  0
   30.0208    4.0800   39.8026 H   0  0  0  0  0
   29.0483    3.6625   41.2347 H   0  0  0  0  0
   28.2593    4.3407   39.7895 H   0  0  0  0  0
   28.0419    5.4567   42.6053 H   0  0  0  0  0
   28.2796    7.1599   42.1429 H   0  0  0  0  0
   27.2592    6.0992   41.1405 H   0  0  0  0  0
   31.8392    3.5377   41.2323 H   0  0  0  0  0
   33.7980    5.1275   39.7036 H   0  0  0  0  0
   32.4874    2.0726   39.4470 H   0  0  0  0  0
   35.1088    2.7061   40.2586 H   0  0  0  0  0
   34.1883    3.1082   41.7609 H   0  0  0  0  0
   35.3980    4.9815   42.1585 H   0  0  0  0  0
   35.7938    5.2236   40.4128 H   0  0  0  0  0
   38.7070    3.9736   42.6300 H   0  0  0  0  0
   37.4275    5.1421   42.9743 H   0  0  0  0  0
  1  2  1  0  0  0
  2  3  1  0  0  0
  2  5  1  0  0  0
  3  4  2  0  0  0
  3  9  1  0  0  0
  5  6  1  0  0  0
  6  7  1  0  0  0
  6  8  1  0  0  0
  9 10  1  0  0  0
  9 15  1  0  0  0
 10 11  1  0  0  0
 10 13  1  0  0  0
 11 12  2  0  0  0
 11 16  1  0  0  0
 13 14  1  0  0  0
 14 15  1  0  0  0
 16 17  1  0  0  0
 17 18  1  0  0  0
 17 20  1  0  0  0
 18 19  2  0  0  0
 18 25  1  0  0  0
 20 21  1  0  0  0
 21 22  1  0  0  0
 22 23  2  0  0  0
 22 24  1  0  0  0
 25 26  1  0  0  0
 26 27  1  0  0  0
 26 29  1  0  0  0
 27 28  2  0  0  0
 27 33  1  0  0  0
 29 30  1  0  0  0
 30 31  1  0  0  0
 30 32  2  0  0  0
 33 34  1  0  0  0
 34 35  1  0  0  0
 34 37  1  0  0  0
 35 36  2  0  0  0
 35 44  1  0  0  0
 37 38  1  0  0  0
 38 39  1  0  0  0
 39 40  1  0  0  0
 40 41  1  0  0  0
 41 42  1  0  0  0
 41 43  2  0  0  0
 44 45  1  0  0  0
 45 46  1  0  0  0
 46 47  2  0  0  0
 46 48  1  0  0  0
 48 49  1  0  0  0
 49 50  1  0  0  0
 49 52  1  0  0  0
 50 51  2  0  0  0
 50 59  1  0  0  0
 52 53  1  0  0  0
 53 54  4  0  0  0
 53 55  4  0  0  0
 54 56  4  0  0  0
 55 57  4  0  0  0
 56 58  4  0  0  0
 57 58  4  0  0  0
 59 60  1  0  0  0
 60 61  1  0  0  0
 60 63  1  0  0  0
 61 62  2  0  0  0
 61 67  1  0  0  0
 63 64  1  0  0  0
 64 65  1  0  0  0
 64 66  1  0  0  0
 67 68  1  0  0  0
 68 69  1  0  0  0
 68 71  1  0  0  0
 69 70  2  0  0  0
 69 74  1  0  0  0
 71 72  1  0  0  0
 71 73  1  0  0  0
 74 75  1  0  0  0
 75 76  1  0  0  0
 75 78  1  0  0  0
 76 77  2  0  0  0
 76 81  1  0  0  0
 78 79  1  0  0  0
 78 80  1  0  0  0
 81 82  1  0  0  0
 82 83  1  0  0  0
 82 85  1  0  0  0
 83 84  1  0  0  0
 83 90  2  0  0  0
 85 86  1  0  0  0
 86 87  1  0  0  0
 87 88  2  0  0  0
 87 89  1  0  0  0
  1 91  1  0  0  0
  1 92  1  0  0  0
  1 93  1  0  0  0
  2 94  1  0  0  0
  5 95  1  0  0  0
  5 96  1  0  0  0
  6 97  1  0  0  0
  7 98  1  0  0  0
  7 99  1  0  0  0
  7100  1  0  0  0
  8101  1  0  0  0
  8102  1  0  0  0
  8103  1  0  0  0
 10104  1  0  0  0
 13105  1  0  0  0
 13106  1  0  0  0
 14107  1  0  0  0
 14108  1  0  0  0
 15109  1  0  0  0
 15110  1  0  0  0
 16111  1  0  0  0
 17112  1  0  0  0
 20113  1  0  0  0
 20114  1  0  0  0
 21115  1  0  0  0
 21116  1  0  0  0
 24117  1  0  0  0
 24118  1  0  0  0
 25119  1  0  0  0
 26120  1  0  0  0
 29121  1  0  0  0
 29122  1  0  0  0
 31123  1  0  0  0
 33124  1  0  0  0
 34125  1  0  0  0
 37126  1  0  0  0
 37127  1  0  0  0
 38128  1  0  0  0
 38129  1  0  0  0
 39130  1  0  0  0
 39131  1  0  0  0
 40132  1  0  0  0
 42133  1  0  0  0
 42134  1  0  0  0
 43135  1  0  0  0
 44136  1  0  0  0
 45137  1  0  0  0
 45138  1  0  0  0
 48139  1  0  0  0
 49140  1  0  0  0
 52141  1  0  0  0
 52142  1  0  0  0
 54143  1  0  0  0
 55144  1  0  0  0
 56145  1  0  0  0
 57146  1  0  0  0
 58147  1  0  0  0
 59148  1  0  0  0
 60149  1  0  0  0
 63150  1  0  0  0
 63151  1  0  0  0
 64152  1  0  0  0
 65153  1  0  0  0
 65154  1  0  0  0
 65155  1  0  0  0
 66156  1  0  0  0
 66157  1  0  0  0
 66158  1  0  0  0
 67159  1  0  0  0
 68160  1  0  0  0
 71161  1  0  0  0
 72162  1  0  0  0
 72163  1  0  0  0
 72164  1  0  0  0
 73165  1  0  0  0
 73166  1  0  0  0
 73167  1  0  0  0
 74168  1  0  0  0
 75169  1  0  0  0
 78170  1  0  0  0
 79171  1  0  0  0
 79172  1  0  0  0
 79173  1  0  0  0
 80174  1  0  0  0
 80175  1  0  0  0
 80176  1  0  0  0
 81177  1  0  0  0
 82178  1  0  0  0
 84179  1  0  0  0
 85180  1  0  0  0
 85181  1  0  0  0
 86182  1  0  0  0
 86183  1  0  0  0
 89184  1  0  0  0
 89185  1  0  0  0
M  END
$$$$
