3t7g_ligand
  -I-interpret- 

176175  0  0  0  0  0  0  0  0999 V2000
   37.5870  -30.7610   25.0810 N   0  3  0  0  0
   37.2260  -31.2710   23.7600 C   0  0  0  0  0
   35.7100  -31.4670   23.6050 C   0  0  0  0  0
   35.2600  -32.3560   22.8780 O   0  0  0  0  0
   37.9580  -32.5830   23.4770 C   0  0  0  0  0
   34.9300  -30.6290   24.2830 N   0  0  0  0  0
   33.4770  -30.7630   24.2590 C   0  0  0  0  0
   32.9230  -30.7210   22.8360 C   0  0  0  0  0
   32.1100  -31.5620   22.4560 O   0  0  0  0  0
   32.7810  -29.7140   25.1500 C   0  0  0  0  0
   33.0990  -29.9790   26.6310 C   0  0  0  0  0
   31.2750  -29.7220   24.9080 C   0  0  0  0  0
   32.5990  -28.9100   27.5990 C   0  0  0  0  0
   33.3810  -29.7580   22.0440 N   0  0  0  0  0
   32.9000  -29.6050   20.6710 C   0  0  0  0  0
   33.2470  -30.8110   19.7920 C   0  0  0  0  0
   32.4830  -31.1790   18.8980 O   0  0  0  0  0
   33.4510  -28.3130   20.0480 C   0  0  0  0  0
   34.3870  -31.4360   20.0570 N   0  0  0  0  0
   34.7990  -32.6130   19.2940 C   0  0  0  0  0
   33.9120  -33.8170   19.6120 C   0  0  0  0  0
   33.4530  -34.5200   18.7140 O   0  0  0  0  0
   36.2670  -32.9540   19.5750 C   0  0  0  0  0
   33.6760  -34.0420   20.8990 N   0  0  0  0  0
   32.8150  -35.1320   21.3600 C   0  0  0  0  0
   31.4170  -35.0660   20.7330 C   0  0  0  0  0
   30.9330  -36.0480   20.1750 O   0  0  0  0  0
   32.7150  -35.1000   22.8890 C   0  0  0  0  0
   31.8260  -36.0970   23.6310 C   0  0  0  0  0
   32.1490  -36.0500   25.1110 C   0  0  0  0  0
   30.3320  -35.8320   23.4110 C   0  0  0  0  0
   30.7740  -33.9080   20.8430 N   0  0  0  0  0
   29.4260  -33.7000   20.3180 C   0  0  0  0  0
   29.3220  -33.9710   18.8140 C   0  0  0  0  0
   28.3470  -34.5660   18.3480 O   0  0  0  0  0
   28.9270  -32.2790   20.6140 C   0  0  0  0  0
   28.8820  -32.0350   22.1220 C   0  0  0  0  0
   27.5580  -32.0440   20.0000 C   0  0  0  0  0
   28.0610  -33.0490   22.8750 C   0  0  0  0  0
   30.3230  -33.5180   18.0620 N   0  0  0  0  0
   30.4070  -33.7800   16.6290 C   0  0  0  0  0
   30.4900  -35.2730   16.3290 C   0  0  0  0  0
   29.8430  -35.7620   15.4060 O   0  0  0  0  0
   31.6340  -33.0740   16.0170 C   0  0  0  0  0
   31.3050  -35.9950   17.0980 N   0  0  0  0  0
   31.4780  -37.4360   16.8970 C   0  0  0  0  0
   30.1930  -38.2200   17.2130 C   0  0  0  0  0
   30.0200  -39.3420   16.7480 O   0  0  0  0  0
   32.6330  -37.9810   17.7540 C   0  0  0  0  0
   33.9670  -37.3560   17.4040 C   0  0  0  0  0
   34.0600  -36.6540   16.3570 O   0  0  0  0  0
   34.9540  -37.5560   18.1630 O   0  0  0  0  0
   29.3090  -37.6260   18.0060 N   0  0  0  0  0
   28.0850  -38.2990   18.4430 C   0  0  0  0  0
   26.8550  -37.9230   17.6170 C   0  0  0  0  0
   25.7620  -38.4740   17.8220 O   0  0  0  0  0
   27.8120  -37.9970   19.9110 C   0  0  0  0  0
   28.7840  -38.6330   20.8520 C   0  0  0  0  0
   28.3000  -38.5180   22.5680 S   0  0  0  0  0
   26.7460  -39.4440   22.5840 C   0  0  0  0  0
   27.0280  -36.9770   16.6990 N   0  0  0  0  0
   25.9380  -36.5820   15.8170 C   0  0  0  0  0
   25.4720  -37.7360   14.9380 C   0  0  0  0  0
   26.2740  -38.4210   14.3170 O   0  0  0  0  0
   26.3240  -35.3950   14.9340 C   0  0  0  0  0
   25.2320  -35.0570   13.9290 C   0  0  0  0  0
   25.4330  -33.7100   13.2590 C   0  0  0  0  0
   24.5480  -33.3110   12.4680 O   0  0  0  0  0
   26.4690  -33.0590   13.5280 O   0  0  0  0  0
   24.1640  -37.9370   14.8810 N   0  0  0  0  0
   23.6060  -38.9940   14.0580 C   0  0  0  0  0
   22.7980  -38.4170   12.9030 C   0  0  0  0  0
   22.6460  -37.1990   12.7840 O   0  0  0  0  0
   22.7450  -39.9680   14.8830 C   0  0  0  0  0
   21.5690  -39.2410   15.5350 C   0  0  0  0  0
   23.6010  -40.6640   15.9360 C   0  0  0  0  0
   20.5860  -40.1800   16.2160 C   0  0  0  0  0
   22.2980  -39.3060   12.0500 N   0  0  0  0  0
   21.5380  -38.9240   10.8670 C   0  0  0  0  0
   20.0960  -39.3840   11.0040 C   0  0  0  0  0
   19.8030  -40.3110   11.7620 O   0  0  0  0  0
   22.1660  -39.5280    9.6080 C   0  0  0  0  0
   19.1922  -38.8130   10.3372 O   0  0  0  0  0
   37.0908  -29.8867   25.2539 H   0  0  0  0  0
   37.3284  -31.4462   25.7910 H   0  0  0  0  0
   38.5928  -30.5954   25.1170 H   0  0  0  0  0
   37.5334  -30.5206   23.0317 H   0  0  0  0  0
   37.6217  -33.3443   24.1808 H   0  0  0  0  0
   37.7411  -32.9063   22.4589 H   0  0  0  0  0
   39.0313  -32.4305   23.5902 H   0  0  0  0  0
   35.3551  -29.8797   24.8292 H   0  0  0  0  0
   33.2536  -31.7459   24.6738 H   0  0  0  0  0
   33.1602  -28.7260   24.8888 H   0  0  0  0  0
   34.1851  -30.0017   26.7206 H   0  0  0  0  0
   32.5954  -30.9075   26.8999 H   0  0  0  0  0
   31.0751  -29.4879   23.8624 H   0  0  0  0  0
   30.8757  -30.7085   25.1436 H   0  0  0  0  0
   30.8019  -28.9753   25.5457 H   0  0  0  0  0
   33.0546  -27.9522   27.3475 H   0  0  0  0  0
   31.5148  -28.8297   27.5211 H   0  0  0  0  0
   32.8719  -29.1874   28.6172 H   0  0  0  0  0
   34.0838  -29.1107   22.4012 H   0  0  0  0  0
   31.8128  -29.5445   20.7193 H   0  0  0  0  0
   33.1203  -27.4574   20.6369 H   0  0  0  0  0
   34.5403  -28.3509   20.0399 H   0  0  0  0  0
   33.0819  -28.2174   19.0269 H   0  0  0  0  0
   34.9863  -31.0893   20.8060 H   0  0  0  0  0
   34.6883  -32.3757   18.2359 H   0  0  0  0  0
   36.8957  -32.1105   19.2897 H   0  0  0  0  0
   36.3938  -33.1601   20.6378 H   0  0  0  0  0
   36.5516  -33.8330   18.9966 H   0  0  0  0  0
   34.1108  -33.4328   21.5920 H   0  0  0  0  0
   33.2665  -36.0717   21.0418 H   0  0  0  0  0
   32.2695  -34.1296   23.1079 H   0  0  0  0  0
   33.7235  -35.3365   23.2282 H   0  0  0  0  0
   32.0339  -37.0885   23.2287 H   0  0  0  0  0
   33.1964  -36.3114   25.2615 H   0  0  0  0  0
   31.9661  -35.0444   25.4897 H   0  0  0  0  0
   31.5159  -36.7605   25.6425 H   0  0  0  0  0
   30.0852  -34.8322   23.7681 H   0  0  0  0  0
   30.1039  -35.9060   22.3477 H   0  0  0  0  0
   29.7485  -36.5701   23.9613 H   0  0  0  0  0
   31.2406  -33.1324   21.3133 H   0  0  0  0  0
   28.7938  -34.4245   20.8314 H   0  0  0  0  0
   29.6259  -31.5736   20.1645 H   0  0  0  0  0
   28.4216  -31.0599   22.2809 H   0  0  0  0  0
   29.9044  -32.1024   22.4938 H   0  0  0  0  0
   27.6182  -32.1761   18.9197 H   0  0  0  0  0
   26.8473  -32.7584   20.4156 H   0  0  0  0  0
   27.2293  -31.0295   20.2255 H   0  0  0  0  0
   27.0339  -33.0256   22.5109 H   0  0  0  0  0
   28.4807  -34.0427   22.7187 H   0  0  0  0  0
   28.0765  -32.8098   23.9383 H   0  0  0  0  0
   31.0588  -32.9671   18.5042 H   0  0  0  0  0
   29.4943  -33.3865   16.1815 H   0  0  0  0  0
   31.5492  -31.9988   16.1749 H   0  0  0  0  0
   32.5406  -33.4426   16.4970 H   0  0  0  0  0
   31.6764  -33.2833   14.9481 H   0  0  0  0  0
   31.8217  -35.5322   17.8459 H   0  0  0  0  0
   31.7154  -37.5759   15.8424 H   0  0  0  0  0
   32.7079  -39.0530   17.5714 H   0  0  0  0  0
   32.4164  -37.7452   18.7959 H   0  0  0  0  0
   33.2068  -36.6212   15.9182 H   0  0  0  0  0
   29.4883  -36.6722   18.3200 H   0  0  0  0  0
   28.2590  -39.3649   18.2960 H   0  0  0  0  0
   26.8253  -38.3963   20.1458 H   0  0  0  0  0
   27.8946  -36.9179   20.0405 H   0  0  0  0  0
   29.7333  -38.1082   20.7447 H   0  0  0  0  0
   28.8387  -39.6917   20.5985 H   0  0  0  0  0
   26.0353  -38.9703   21.9068 H   0  0  0  0  0
   26.9314  -40.4681   22.2599 H   0  0  0  0  0
   26.3383  -39.4496   23.5949 H   0  0  0  0  0
   27.9364  -36.5215   16.6111 H   0  0  0  0  0
   25.1154  -36.2835   16.4669 H   0  0  0  0  0
   27.2266  -35.6583   14.3826 H   0  0  0  0  0
   26.4786  -34.5275   15.5756 H   0  0  0  0  0
   24.2859  -35.0197   14.4690 H   0  0  0  0  0
   25.2518  -35.8196   13.1505 H   0  0  0  0  0
   27.0027  -33.5535   14.1542 H   0  0  0  0  0
   23.5398  -37.3400   15.4236 H   0  0  0  0  0
   24.4440  -39.5580   13.6485 H   0  0  0  0  0
   22.3384  -40.7229   14.2100 H   0  0  0  0  0
   21.0301  -38.7134   14.7481 H   0  0  0  0  0
   21.9741  -38.5770   16.2987 H   0  0  0  0  0
   24.3988  -41.2205   15.4441 H   0  0  0  0  0
   24.0341  -39.9175   16.6018 H   0  0  0  0  0
   22.9798  -41.3498   16.5121 H   0  0  0  0  0
   20.1779  -40.8728   15.4800 H   0  0  0  0  0
   21.1013  -40.7394   16.9968 H   0  0  0  0  0
   19.7766  -39.5987   16.6576 H   0  0  0  0  0
   22.4531  -40.2977   12.2315 H   0  0  0  0  0
   21.5573  -37.8379   10.7767 H   0  0  0  0  0
   23.1890  -39.1663    9.5044 H   0  0  0  0  0
   22.1702  -40.6148    9.6912 H   0  0  0  0  0
   21.5843  -39.2314    8.7352 H   0  0  0  0  0
   19.5820  -38.1187    9.8009 H   0  0  0  0  0
  1  2  1  0  0  0
  2  3  1  0  0  0
  2  5  1  0  0  0
  3  4  2  0  0  0
  3  6  1  0  0  0
  6  7  1  0  0  0
  7  8  1  0  0  0
  7 10  1  0  0  0
  8  9  2  0  0  0
  8 14  1  0  0  0
 10 11  1  0  0  0
 10 12  1  0  0  0
 11 13  1  0  0  0
 14 15  1  0  0  0
 15 16  1  0  0  0
 15 18  1  0  0  0
 16 17  2  0  0  0
 16 19  1  0  0  0
 19 20  1  0  0  0
 20 21  1  0  0  0
 20 23  1  0  0  0
 21 22  2  0  0  0
 21 24  1  0  0  0
 24 25  1  0  0  0
 25 26  1  0  0  0
 25 28  1  0  0  0
 26 27  2  0  0  0
 26 32  1  0  0  0
 28 29  1  0  0  0
 29 30  1  0  0  0
 29 31  1  0  0  0
 32 33  1  0  0  0
 33 34  1  0  0  0
 33 36  1  0  0  0
 34 35  2  0  0  0
 34 40  1  0  0  0
 36 37  1  0  0  0
 36 38  1  0  0  0
 37 39  1  0  0  0
 40 41  1  0  0  0
 41 42  1  0  0  0
 41 44  1  0  0  0
 42 43  2  0  0  0
 42 45  1  0  0  0
 45 46  1  0  0  0
 46 47  1  0  0  0
 46 49  1  0  0  0
 47 48  2  0  0  0
 47 53  1  0  0  0
 49 50  1  0  0  0
 50 51  1  0  0  0
 50 52  2  0  0  0
 53 54  1  0  0  0
 54 55  1  0  0  0
 54 57  1  0  0  0
 55 56  2  0  0  0
 55 61  1  0  0  0
 57 58  1  0  0  0
 58 59  1  0  0  0
 59 60  1  0  0  0
 61 62  1  0  0  0
 62 63  1  0  0  0
 62 65  1  0  0  0
 63 64  2  0  0  0
 63 70  1  0  0  0
 65 66  1  0  0  0
 66 67  1  0  0  0
 67 68  2  0  0  0
 67 69  1  0  0  0
 70 71  1  0  0  0
 71 72  1  0  0  0
 71 74  1  0  0  0
 72 73  2  0  0  0
 72 78  1  0  0  0
 74 75  1  0  0  0
 74 76  1  0  0  0
 75 77  1  0  0  0
 78 79  1  0  0  0
 79 80  1  0  0  0
 79 82  1  0  0  0
 80 81  2  0  0  0
 80 83  1  0  0  0
  1 84  1  0  0  0
  1 85  1  0  0  0
  1 86  1  0  0  0
  2 87  1  0  0  0
  5 88  1  0  0  0
  5 89  1  0  0  0
  5 90  1  0  0  0
  6 91  1  0  0  0
  7 92  1  0  0  0
 10 93  1  0  0  0
 11 94  1  0  0  0
 11 95  1  0  0  0
 12 96  1  0  0  0
 12 97  1  0  0  0
 12 98  1  0  0  0
 13 99  1  0  0  0
 13100  1  0  0  0
 13101  1  0  0  0
 14102  1  0  0  0
 15103  1  0  0  0
 18104  1  0  0  0
 18105  1  0  0  0
 18106  1  0  0  0
 19107  1  0  0  0
 20108  1  0  0  0
 23109  1  0  0  0
 23110  1  0  0  0
 23111  1  0  0  0
 24112  1  0  0  0
 25113  1  0  0  0
 28114  1  0  0  0
 28115  1  0  0  0
 29116  1  0  0  0
 30117  1  0  0  0
 30118  1  0  0  0
 30119  1  0  0  0
 31120  1  0  0  0
 31121  1  0  0  0
 31122  1  0  0  0
 32123  1  0  0  0
 33124  1  0  0  0
 36125  1  0  0  0
 37126  1  0  0  0
 37127  1  0  0  0
 38128  1  0  0  0
 38129  1  0  0  0
 38130  1  0  0  0
 39131  1  0  0  0
 39132  1  0  0  0
 39133  1  0  0  0
 40134  1  0  0  0
 41135  1  0  0  0
 44136  1  0  0  0
 44137  1  0  0  0
 44138  1  0  0  0
 45139  1  0  0  0
 46140  1  0  0  0
 49141  1  0  0  0
 49142  1  0  0  0
 51143  1  0  0  0
 53144  1  0  0  0
 54145  1  0  0  0
 57146  1  0  0  0
 57147  1  0  0  0
 58148  1  0  0  0
 58149  1  0  0  0
 60150  1  0  0  0
 60151  1  0  0  0
 60152  1  0  0  0
 61153  1  0  0  0
 62154  1  0  0  0
 65155  1  0  0  0
 65156  1  0  0  0
 66157  1  0  0  0
 66158  1  0  0  0
 69159  1  0  0  0
 70160  1  0  0  0
 71161  1  0  0  0
 74162  1  0  0  0
 75163  1  0  0  0
 75164  1  0  0  0
 76165  1  0  0  0
 76166  1  0  0  0
 76167  1  0  0  0
 77168  1  0  0  0
 77169  1  0  0  0
 77170  1  0  0  0
 78171  1  0  0  0
 79172  1  0  0  0
 82173  1  0  0  0
 82174  1  0  0  0
 82175  1  0  0  0
 83176  1  0  0  0
M  END
$$$$
