### 
### Created by X-TOOL on Mon Sep 10 21:13:06 2018
### 

@<TRIPOS>MOLECULE
3t7g_ligand
  173   172     1     0     0
SMALL
GAST_HUCK


@<TRIPOS>ATOM
      1 N          37.5870  -30.7610   25.0810 N.4       1 ASP         0.2377
      2 CA         37.2260  -31.2710   23.7600 C.3       1 ASP         0.0621
      3 C          35.7100  -31.4670   23.6050 C.2       1 ASP         0.2264
      4 O          35.2600  -32.3560   22.8780 O.2       1 ASP        -0.3907
      5 CB         37.9580  -32.5830   23.4770 C.3       1 ASP        -0.0040
      6 N          34.9300  -30.6290   24.2830 N.am      1 ILE        -0.2608
      7 CA         33.4770  -30.7630   24.2590 C.3       1 ILE         0.1336
      8 C          32.9230  -30.7210   22.8360 C.2       1 ILE         0.2042
      9 O          32.1100  -31.5620   22.4560 O.2       1 ILE        -0.3944
     10 CB         32.7810  -29.7140   25.1500 C.3       1 ILE        -0.0037
     11 CG1        33.0990  -29.9790   26.6310 C.3       1 ILE        -0.0491
     12 CG2        31.2750  -29.7220   24.9080 C.3       1 ILE        -0.0582
     13 CD1        32.5990  -28.9100   27.5990 C.3       1 ILE        -0.0648
     14 N          33.3810  -29.7580   22.0440 N.am      1 ASP        -0.2640
     15 CA         32.9000  -29.6050   20.6710 C.3       1 ASP         0.1282
     16 C          33.2470  -30.8110   19.7920 C.2       1 ASP         0.2036
     17 O          32.4830  -31.1790   18.8980 O.2       1 ASP        -0.3944
     18 CB         33.4510  -28.3130   20.0480 C.3       1 ASP        -0.0244
     19 N          34.3870  -31.4360   20.0570 N.am      1 GLU        -0.2640
     20 CA         34.7990  -32.6130   19.2940 C.3       1 GLU         0.1282
     21 C          33.9120  -33.8170   19.6120 C.2       1 GLU         0.2036
     22 O          33.4530  -34.5200   18.7140 O.2       1 GLU        -0.3944
     23 CB         36.2670  -32.9540   19.5750 C.3       1 GLU        -0.0244
     24 N          33.6760  -34.0420   20.8990 N.am      1 LEU        -0.2637
     25 CA         32.8150  -35.1320   21.3600 C.3       1 LEU         0.1312
     26 C          31.4170  -35.0660   20.7330 C.2       1 LEU         0.2039
     27 O          30.9330  -36.0480   20.1750 O.2       1 LEU        -0.3944
     28 CB         32.7150  -35.1000   22.8890 C.3       1 LEU        -0.0101
     29 CG         31.8260  -36.0970   23.6310 C.3       1 LEU        -0.0425
     30 CD1        32.1490  -36.0500   25.1110 C.3       1 LEU        -0.0625
     31 CD2        30.3320  -35.8320   23.4110 C.3       1 LEU        -0.0625
     32 N          30.7740  -33.9080   20.8430 N.am      1 ILE        -0.2635
     33 CA         29.4260  -33.7000   20.3180 C.3       1 ILE         0.1335
     34 C          29.3220  -33.9710   18.8140 C.2       1 ILE         0.2041
     35 O          28.3470  -34.5660   18.3480 O.2       1 ILE        -0.3944
     36 CB         28.9270  -32.2790   20.6140 C.3       1 ILE        -0.0037
     37 CG1        28.8820  -32.0350   22.1220 C.3       1 ILE        -0.0491
     38 CG2        27.5580  -32.0440   20.0000 C.3       1 ILE        -0.0582
     39 CD1        28.0610  -33.0490   22.8750 C.3       1 ILE        -0.0648
     40 N          30.3230  -33.5180   18.0620 N.am      1 GLN        -0.2640
     41 CA         30.4070  -33.7800   16.6290 C.3       1 GLN         0.1282
     42 C          30.4900  -35.2730   16.3290 C.2       1 GLN         0.2037
     43 O          29.8430  -35.7620   15.4060 O.2       1 GLN        -0.3944
     44 CB         31.6340  -33.0740   16.0170 C.3       1 GLN        -0.0244
     45 N          31.3050  -35.9950   17.0980 N.am      1 ASP        -0.2622
     46 CA         31.4780  -37.4360   16.8970 C.3       1 ASP         0.1423
     47 C          30.1930  -38.2200   17.2130 C.2       1 ASP         0.2056
     48 O          30.0200  -39.3420   16.7480 O.2       1 ASP        -0.3943
     49 CB         32.6330  -37.9810   17.7540 C.3       1 ASP         0.0406
     50 CG         33.9670  -37.3560   17.4040 C.2       1 ASP         0.0393
     51 OD1        34.0600  -36.6540   16.3570 O.co2     1 ASP        -0.5688
     52 OD2        34.9540  -37.5560   18.1630 O.co2     1 ASP        -0.5688
     53 N          29.3090  -37.6260   18.0060 N.am      1 MET        -0.2636
     54 CA         28.0850  -38.2990   18.4430 C.3       1 MET         0.1317
     55 C          26.8550  -37.9230   17.6170 C.2       1 MET         0.2039
     56 O          25.7620  -38.4740   17.8220 O.2       1 MET        -0.3944
     57 CB         27.8120  -37.9970   19.9110 C.3       1 MET        -0.0034
     58 CG         28.7840  -38.6330   20.8520 C.3       1 MET        -0.0024
     59 SD         28.3000  -38.5180   22.5680 S.3       1 MET        -0.1639
     60 CE         26.7460  -39.4440   22.5840 C.3       1 MET        -0.0181
     61 N          27.0280  -36.9770   16.6990 N.am      1 GLU        -0.2636
     62 CA         25.9380  -36.5820   15.8170 C.3       1 GLU         0.1325
     63 C          25.4720  -37.7360   14.9380 C.2       1 GLU         0.2040
     64 O          26.2740  -38.4210   14.3170 O.2       1 GLU        -0.3944
     65 CB         26.3240  -35.3950   14.9340 C.3       1 GLU        -0.0008
     66 CG         25.2320  -35.0570   13.9290 C.3       1 GLU         0.0044
     67 CD         25.4330  -33.7100   13.2590 C.2       1 GLU         0.0350
     68 OE1        24.5480  -33.3110   12.4680 O.co2     1 GLU        -0.5690
     69 OE2        26.4690  -33.0590   13.5280 O.co2     1 GLU        -0.5690
     70 N          24.1640  -37.9370   14.8810 N.am      1 ILE        -0.2635
     71 CA         23.6060  -38.9940   14.0580 C.3       1 ILE         0.1335
     72 C          22.7980  -38.4170   12.9030 C.2       1 ILE         0.2036
     73 O          22.6460  -37.1990   12.7840 O.2       1 ILE        -0.3944
     74 CB         22.7450  -39.9680   14.8830 C.3       1 ILE        -0.0037
     75 CG1        21.5690  -39.2410   15.5350 C.3       1 ILE        -0.0491
     76 CG2        23.6010  -40.6640   15.9360 C.3       1 ILE        -0.0582
     77 CD1        20.5860  -40.1800   16.2160 C.3       1 ILE        -0.0648
     78 N          22.2980  -39.3060   12.0500 N.am      1 LYS        -0.2697
     79 CA         21.5380  -38.9240   10.8670 C.3       1 LYS         0.0916
     80 C          20.0960  -39.3840   11.0040 C.2       1 LYS         0.0598
     81 O          19.8030  -40.3110   11.7620 O.co2     1 LYS        -0.5666
     82 CB         22.1660  -39.5280    9.6080 C.3       1 LYS        -0.0300
     83 H          37.0908  -29.8867   25.2539 H         1 ASP         0.2015
     84 H          37.3284  -31.4462   25.7910 H         1 ASP         0.2015
     85 H          38.5928  -30.5954   25.1170 H         1 ASP         0.2015
     86 H          37.5334  -30.5206   23.0317 H         1 ASP         0.1095
     87 H          37.6217  -33.3443   24.1808 H         1 ASP         0.0310
     88 H          37.7411  -32.9063   22.4589 H         1 ASP         0.0310
     89 H          39.0313  -32.4305   23.5902 H         1 ASP         0.0310
     90 H          35.3551  -29.8797   24.8292 H         1 ILE         0.1885
     91 H          33.2536  -31.7459   24.6738 H         1 ILE         0.0803
     92 H          33.1602  -28.7260   24.8888 H         1 ILE         0.0345
     93 H          34.1851  -30.0017   26.7206 H         1 ILE         0.0267
     94 H          32.5954  -30.9075   26.8999 H         1 ILE         0.0267
     95 H          31.0751  -29.4879   23.8624 H         1 ILE         0.0235
     96 H          30.8757  -30.7085   25.1436 H         1 ILE         0.0235
     97 H          30.8019  -28.9753   25.5457 H         1 ILE         0.0235
     98 H          33.0546  -27.9522   27.3475 H         1 ILE         0.0230
     99 H          31.5148  -28.8297   27.5211 H         1 ILE         0.0230
    100 H          32.8719  -29.1874   28.6172 H         1 ILE         0.0230
    101 H          34.0838  -29.1107   22.4012 H         1 ASP         0.1883
    102 H          31.8128  -29.5445   20.7193 H         1 ASP         0.0797
    103 H          33.1203  -27.4574   20.6369 H         1 ASP         0.0277
    104 H          34.5403  -28.3509   20.0399 H         1 ASP         0.0277
    105 H          33.0819  -28.2174   19.0269 H         1 ASP         0.0277
    106 H          34.9863  -31.0893   20.8060 H         1 GLU         0.1883
    107 H          34.6883  -32.3757   18.2359 H         1 GLU         0.0797
    108 H          36.8957  -32.1105   19.2897 H         1 GLU         0.0277
    109 H          36.3938  -33.1601   20.6378 H         1 GLU         0.0277
    110 H          36.5516  -33.8330   18.9966 H         1 GLU         0.0277
    111 H          34.1108  -33.4328   21.5920 H         1 LEU         0.1883
    112 H          33.2665  -36.0717   21.0418 H         1 LEU         0.0800
    113 H          32.2695  -34.1296   23.1079 H         1 LEU         0.0315
    114 H          33.7235  -35.3365   23.2282 H         1 LEU         0.0315
    115 H          32.0339  -37.0885   23.2287 H         1 LEU         0.0298
    116 H          33.1964  -36.3114   25.2615 H         1 LEU         0.0232
    117 H          31.9661  -35.0444   25.4897 H         1 LEU         0.0232
    118 H          31.5159  -36.7605   25.6425 H         1 LEU         0.0232
    119 H          30.0852  -34.8322   23.7681 H         1 LEU         0.0232
    120 H          30.1039  -35.9060   22.3477 H         1 LEU         0.0232
    121 H          29.7485  -36.5701   23.9613 H         1 LEU         0.0232
    122 H          31.2406  -33.1324   21.3133 H         1 ILE         0.1883
    123 H          28.7938  -34.4245   20.8314 H         1 ILE         0.0803
    124 H          29.6259  -31.5736   20.1645 H         1 ILE         0.0345
    125 H          28.4216  -31.0599   22.2809 H         1 ILE         0.0267
    126 H          29.9044  -32.1024   22.4938 H         1 ILE         0.0267
    127 H          27.6182  -32.1761   18.9197 H         1 ILE         0.0235
    128 H          26.8473  -32.7584   20.4156 H         1 ILE         0.0235
    129 H          27.2293  -31.0295   20.2255 H         1 ILE         0.0235
    130 H          27.0339  -33.0256   22.5109 H         1 ILE         0.0230
    131 H          28.4807  -34.0427   22.7187 H         1 ILE         0.0230
    132 H          28.0765  -32.8098   23.9383 H         1 ILE         0.0230
    133 H          31.0588  -32.9671   18.5042 H         1 GLN         0.1883
    134 H          29.4943  -33.3865   16.1815 H         1 GLN         0.0797
    135 H          31.5492  -31.9988   16.1749 H         1 GLN         0.0277
    136 H          32.5406  -33.4426   16.4970 H         1 GLN         0.0277
    137 H          31.6764  -33.2833   14.9481 H         1 GLN         0.0277
    138 H          31.8217  -35.5322   17.8459 H         1 ASP         0.1884
    139 H          31.7154  -37.5759   15.8424 H         1 ASP         0.0819
    140 H          32.7079  -39.0530   17.5714 H         1 ASP         0.0478
    141 H          32.4164  -37.7452   18.7959 H         1 ASP         0.0478
    142 H          29.4883  -36.6722   18.3200 H         1 MET         0.1883
    143 H          28.2590  -39.3649   18.2960 H         1 MET         0.0800
    144 H          26.8253  -38.3963   20.1458 H         1 MET         0.0320
    145 H          27.8946  -36.9179   20.0405 H         1 MET         0.0320
    146 H          29.7333  -38.1082   20.7447 H         1 MET         0.0378
    147 H          28.8387  -39.6917   20.5985 H         1 MET         0.0378
    148 H          26.0353  -38.9703   21.9068 H         1 MET         0.0340
    149 H          26.9314  -40.4681   22.2599 H         1 MET         0.0340
    150 H          26.3383  -39.4496   23.5949 H         1 MET         0.0340
    151 H          27.9364  -36.5215   16.6111 H         1 GLU         0.1883
    152 H          25.1154  -36.2835   16.4669 H         1 GLU         0.0801
    153 H          27.2266  -35.6583   14.3826 H         1 GLU         0.0330
    154 H          26.4786  -34.5275   15.5756 H         1 GLU         0.0330
    155 H          24.2859  -35.0197   14.4690 H         1 GLU         0.0433
    156 H          25.2518  -35.8196   13.1505 H         1 GLU         0.0433
    157 H          23.5398  -37.3400   15.4236 H         1 ILE         0.1883
    158 H          24.4440  -39.5580   13.6485 H         1 ILE         0.0803
    159 H          22.3384  -40.7229   14.2100 H         1 ILE         0.0345
    160 H          21.0301  -38.7134   14.7481 H         1 ILE         0.0267
    161 H          21.9741  -38.5770   16.2987 H         1 ILE         0.0267
    162 H          24.3988  -41.2205   15.4441 H         1 ILE         0.0235
    163 H          24.0341  -39.9175   16.6018 H         1 ILE         0.0235
    164 H          22.9798  -41.3498   16.5121 H         1 ILE         0.0235
    165 H          20.1779  -40.8728   15.4800 H         1 ILE         0.0230
    166 H          21.1013  -40.7394   16.9968 H         1 ILE         0.0230
    167 H          19.7766  -39.5987   16.6576 H         1 ILE         0.0230
    168 H          22.4531  -40.2977   12.2315 H         1 LYS         0.1875
    169 H          21.5573  -37.8379   10.7767 H         1 LYS         0.0723
    170 O          19.1922  -38.8130   10.3372 O.co2     1 LYS        -0.5666
    171 H          23.1890  -39.1663    9.5044 H         1 LYS         0.0270
    172 H          22.1702  -40.6148    9.6912 H         1 LYS         0.0270
    173 H          21.5843  -39.2314    8.7352 H         1 LYS         0.0270
@<TRIPOS>BOND
     1    1    2 1  
     2    2    3 1  
     3    2    5 1  
     4    3    4 2  
     5    3    6 am 
     6    6    7 1  
     7    7    8 1  
     8    7   10 1  
     9    8    9 2  
    10    8   14 am 
    11   10   11 1  
    12   10   12 1  
    13   11   13 1  
    14   14   15 1  
    15   15   16 1  
    16   15   18 1  
    17   16   17 2  
    18   16   19 am 
    19   19   20 1  
    20   20   21 1  
    21   20   23 1  
    22   21   22 2  
    23   21   24 am 
    24   24   25 1  
    25   25   26 1  
    26   25   28 1  
    27   26   27 2  
    28   26   32 am 
    29   28   29 1  
    30   29   30 1  
    31   29   31 1  
    32   32   33 1  
    33   33   34 1  
    34   33   36 1  
    35   34   35 2  
    36   34   40 am 
    37   36   37 1  
    38   36   38 1  
    39   37   39 1  
    40   40   41 1  
    41   41   42 1  
    42   41   44 1  
    43   42   43 2  
    44   42   45 am 
    45   45   46 1  
    46   46   47 1  
    47   46   49 1  
    48   47   48 2  
    49   47   53 am 
    50   49   50 1  
    51   50   51 ar 
    52   50   52 ar 
    53   53   54 1  
    54   54   55 1  
    55   54   57 1  
    56   55   56 2  
    57   55   61 am 
    58   57   58 1  
    59   58   59 1  
    60   59   60 1  
    61   61   62 1  
    62   62   63 1  
    63   62   65 1  
    64   63   64 2  
    65   63   70 am 
    66   65   66 1  
    67   66   67 1  
    68   67   68 ar 
    69   67   69 ar 
    70   70   71 1  
    71   71   72 1  
    72   71   74 1  
    73   72   73 2  
    74   72   78 am 
    75   74   75 1  
    76   74   76 1  
    77   75   77 1  
    78   78   79 1  
    79   79   80 1  
    80   79   82 1  
    81   80   81 ar 
    82    1   83 1  
    83    1   84 1  
    84    1   85 1  
    85    2   86 1  
    86    5   87 1  
    87    5   88 1  
    88    5   89 1  
    89    6   90 1  
    90    7   91 1  
    91   10   92 1  
    92   11   93 1  
    93   11   94 1  
    94   12   95 1  
    95   12   96 1  
    96   12   97 1  
    97   13   98 1  
    98   13   99 1  
    99   13  100 1  
   100   14  101 1  
   101   15  102 1  
   102   18  103 1  
   103   18  104 1  
   104   18  105 1  
   105   19  106 1  
   106   20  107 1  
   107   23  108 1  
   108   23  109 1  
   109   23  110 1  
   110   24  111 1  
   111   25  112 1  
   112   28  113 1  
   113   28  114 1  
   114   29  115 1  
   115   30  116 1  
   116   30  117 1  
   117   30  118 1  
   118   31  119 1  
   119   31  120 1  
   120   31  121 1  
   121   32  122 1  
   122   33  123 1  
   123   36  124 1  
   124   37  125 1  
   125   37  126 1  
   126   38  127 1  
   127   38  128 1  
   128   38  129 1  
   129   39  130 1  
   130   39  131 1  
   131   39  132 1  
   132   40  133 1  
   133   41  134 1  
   134   44  135 1  
   135   44  136 1  
   136   44  137 1  
   137   45  138 1  
   138   46  139 1  
   139   49  140 1  
   140   49  141 1  
   141   53  142 1  
   142   54  143 1  
   143   57  144 1  
   144   57  145 1  
   145   58  146 1  
   146   58  147 1  
   147   60  148 1  
   148   60  149 1  
   149   60  150 1  
   150   61  151 1  
   151   62  152 1  
   152   65  153 1  
   153   65  154 1  
   154   66  155 1  
   155   66  156 1  
   156   70  157 1  
   157   71  158 1  
   158   74  159 1  
   159   75  160 1  
   160   75  161 1  
   161   76  162 1  
   162   76  163 1  
   163   76  164 1  
   164   77  165 1  
   165   77  166 1  
   166   77  167 1  
   167   78  168 1  
   168   79  169 1  
   169   80  170 ar 
   170   82  171 1  
   171   82  172 1  
   172   82  173 1  
@<TRIPOS>SUBSTRUCTURE
     1 ASP         1

