5wej_ligand
  -I-interpret- 

 49 50  0  0  0  0  0  0  0  0999 V2000
   10.9230    8.6600   -8.1510 C   0  0  0  0  0
    9.7260    9.6770   -9.8880 C   0  0  0  0  0
    9.0430   11.8580   -8.6910 C   0  0  0  0  0
    9.0930   12.5560   -7.3440 C   0  0  0  0  0
    8.2060   11.9610   -6.2540 C   0  0  0  0  0
    6.7360   11.9040   -6.6490 C   0  0  0  0  0
    8.3950   12.7800   -4.9680 C   0  0  0  0  0
    9.8120   12.7540   -9.6580 C   0  0  0  0  0
    9.7240   14.4120  -11.5220 C   0  0  0  0  0
    9.3500   13.9300  -12.9280 C   0  0  0  0  0
    9.7200   12.4770  -13.2640 C   0  0  0  0  0
   11.3440   12.1820  -13.0680 C   0  0  0  0  0
   11.5870   11.1360  -13.8150 C   0  0  0  0  0
    9.4730   12.1940  -14.5410 C   0  0  0  0  0
    9.3060   15.8820  -11.3690 C   0  0  0  0  0
   10.2670    9.8730   -7.6030 C   0  0  0  0  0
    9.6420   10.5320   -8.6860 N   0  0  0  0  0
    9.0360   13.5610  -10.5660 N   0  0  0  0  0
   10.6390   11.2700  -15.0360 N   0  0  0  0  0
   10.5770    8.5620   -9.5260 O   0  0  0  0  0
    8.5610   12.5110  -15.2080 O   0  0  0  0  0
    9.8890   16.3700  -10.1950 O   0  0  0  0  0
   11.0070   12.8170   -9.6400 O   0  0  0  0  0
    9.2230    9.8830  -10.9760 O   0  0  0  0  0
   11.5572    7.9675   -7.5976 H   0  0  0  0  0
    8.0009   11.7090   -8.9736 H   0  0  0  0  0
    8.7359   13.5723   -7.5106 H   0  0  0  0  0
   10.1195   12.4659   -6.9887 H   0  0  0  0  0
    8.5106   10.9267   -6.0946 H   0  0  0  0  0
    6.1636   11.4371   -5.8475 H   0  0  0  0  0
    6.3673   12.9156   -6.8190 H   0  0  0  0  0
    6.6289   11.3187   -7.5622 H   0  0  0  0  0
    8.0346   13.7960   -5.1295 H   0  0  0  0  0
    7.8309   12.3175   -4.1580 H   0  0  0  0  0
    9.4530   12.8056   -4.7072 H   0  0  0  0  0
   10.7983   14.3502  -11.3485 H   0  0  0  0  0
    9.9078   14.5562  -13.6242 H   0  0  0  0  0
    8.2637   13.9917  -12.9933 H   0  0  0  0  0
    9.1197   11.8714  -12.5851 H   0  0  0  0  0
   11.6004   12.0029  -12.0238 H   0  0  0  0  0
   11.9501   13.0392  -13.3612 H   0  0  0  0  0
   11.4104   10.2075  -13.2720 H   0  0  0  0  0
   12.6320   11.0988  -14.1227 H   0  0  0  0  0
    8.2204   15.9640  -11.3158 H   0  0  0  0  0
    9.6406   16.4629  -12.2285 H   0  0  0  0  0
   10.2671   10.1951   -6.5617 H   0  0  0  0  0
    8.0167   13.5350  -10.5378 H   0  0  0  0  0
   10.7500   10.8492  -15.9585 H   0  0  0  0  0
    9.6427   17.2901  -10.0753 H   0  0  0  0  0
  1 16  2  0  0  0
 20  1  1  0  0  0
 17  2  1  0  0  0
  2 20  1  0  0  0
  2 24  2  0  0  0
  3  4  1  0  0  0
  8  3  1  0  0  0
  3 17  1  0  0  0
  4  5  1  0  0  0
  5  6  1  0  0  0
  5  7  1  0  0  0
 18  8  1  0  0  0
  8 23  2  0  0  0
  9 10  1  0  0  0
  9 15  1  0  0  0
  9 18  1  0  0  0
 10 11  1  0  0  0
 11 12  1  0  0  0
 11 14  1  0  0  0
 12 13  1  0  0  0
 13 19  1  0  0  0
 14 19  1  0  0  0
 14 21  2  0  0  0
 15 22  1  0  0  0
 16 17  1  0  0  0
  1 25  1  0  0  0
  3 26  1  0  0  0
  4 27  1  0  0  0
  4 28  1  0  0  0
  5 29  1  0  0  0
  6 30  1  0  0  0
  6 31  1  0  0  0
  6 32  1  0  0  0
  7 33  1  0  0  0
  7 34  1  0  0  0
  7 35  1  0  0  0
  9 36  1  0  0  0
 10 37  1  0  0  0
 10 38  1  0  0  0
 11 39  1  0  0  0
 12 40  1  0  0  0
 12 41  1  0  0  0
 13 42  1  0  0  0
 13 43  1  0  0  0
 15 44  1  0  0  0
 15 45  1  0  0  0
 16 46  1  0  0  0
 18 47  1  0  0  0
 19 48  1  0  0  0
 22 49  1  0  0  0
M  END
$$$$
