6msc_ligand
  -I-interpret- 

 38 41  0  0  0  0  0  0  0  0999 V2000
  -21.5850   14.4990  -35.4700 N   0  0  0  0  0
  -20.6520   12.7240  -32.4740 N   0  0  0  0  0
  -20.0440   11.4630  -36.9820 C   0  0  0  0  0
  -20.4260   12.4040  -35.9960 C   0  0  0  0  0
  -21.0680   13.6070  -36.3920 C   0  0  0  0  0
  -20.2270   12.1870  -34.5970 C   0  0  0  0  0
  -20.8720   13.1220  -33.7680 C   0  0  0  0  0
  -21.1140   13.2950  -31.2130 C   0  0  0  0  0
  -16.9190    8.8770  -34.8260 C   0  0  0  0  0
  -19.3100    8.8040  -33.5340 C   0  0  0  0  0
  -22.2710   15.2300  -39.4620 C   0  0  0  0  0
  -20.2850   11.7390  -38.2820 C   0  0  0  0  0
  -18.8000   10.0370  -33.9400 C   0  0  0  0  0
  -17.5620   10.0910  -34.6120 C   0  0  0  0  0
  -18.5670    7.6710  -33.8140 C   0  0  0  0  0
  -16.9240   11.3700  -35.0890 C   0  0  0  0  0
  -20.8650   12.9050  -38.7270 C   0  0  0  0  0
  -21.2660   13.8370  -37.7880 C   0  0  0  0  0
  -19.6100   11.2690  -33.6980 C   0  0  0  0  0
  -19.9880   10.7830  -39.2110 F   0  0  0  0  0
  -21.5140   14.2230  -34.1630 N   0  0  0  0  0
  -19.8820   11.5920  -32.4420 N   0  0  0  0  0
  -17.3880    7.6870  -34.4470 N   0  0  0  0  0
  -21.8930   15.0110  -38.1010 O   0  0  0  0  0
  -19.5618   10.5282  -36.6960 H   0  0  0  0  0
  -20.7497   14.3185  -31.1240 H   0  0  0  0  0
  -22.2038   13.2928  -31.1923 H   0  0  0  0  0
  -20.7323   12.6988  -30.3842 H   0  0  0  0  0
  -15.9593    8.8992  -35.3424 H   0  0  0  0  0
  -20.2645    8.7351  -33.0122 H   0  0  0  0  0
  -21.3824   15.2068  -40.0928 H   0  0  0  0  0
  -22.9618   14.4476  -39.7763 H   0  0  0  0  0
  -22.7561   16.2020  -39.5511 H   0  0  0  0  0
  -18.9662    6.7066  -33.4999 H   0  0  0  0  0
  -15.9547   11.4932  -34.6059 H   0  0  0  0  0
  -16.7898   11.3265  -36.1698 H   0  0  0  0  0
  -17.5676   12.2123  -34.8351 H   0  0  0  0  0
  -21.0046   13.0889  -39.7923 H   0  0  0  0  0
  5  1  4  0  0  0
  1 21  4  0  0  0
  7  2  4  0  0  0
  2  8  1  0  0  0
  2 22  4  0  0  0
  4  3  4  0  0  0
 12  3  4  0  0  0
  5  4  4  0  0  0
  4  6  4  0  0  0
 18  5  4  0  0  0
  6  7  4  0  0  0
  6 19  4  0  0  0
 21  7  4  0  0  0
 14  9  4  0  0  0
  9 23  4  0  0  0
 13 10  4  0  0  0
 10 15  4  0  0  0
 24 11  1  0  0  0
 17 12  4  0  0  0
 12 20  1  0  0  0
 13 14  4  0  0  0
 19 13  1  0  0  0
 14 16  1  0  0  0
 15 23  4  0  0  0
 18 17  4  0  0  0
 18 24  1  0  0  0
 19 22  4  0  0  0
  3 25  1  0  0  0
  8 26  1  0  0  0
  8 27  1  0  0  0
  8 28  1  0  0  0
  9 29  1  0  0  0
 10 30  1  0  0  0
 11 31  1  0  0  0
 11 32  1  0  0  0
 11 33  1  0  0  0
 15 34  1  0  0  0
 16 35  1  0  0  0
 16 36  1  0  0  0
 16 37  1  0  0  0
 17 38  1  0  0  0
M  END
$$$$
