5ti0_ligand
  -I-interpret- 

 17 17  0  0  0  0  0  0  0  0999 V2000
   -6.2320    0.3190   17.1540 S   0  0  0  0  0
   -5.8620    1.6780   16.2020 C   0  0  0  0  0
   -6.2740    2.9800   16.6200 C   0  0  0  0  0
   -6.0580    4.2390   15.9580 C   0  0  0  0  0
   -5.4030    4.5240   14.7550 C   0  0  0  0  0
   -4.7910    3.5940   13.9040 C   0  0  0  0  0
   -4.6690    2.2300   14.0030 C   0  0  0  0  0
   -5.1350    1.4110   14.9990 C   0  0  0  0  0
   -4.8080    0.1300   14.7240 O   0  0  0  0  0
   -5.7512   -0.7744   16.5690 H   0  0  0  0  0
   -6.8222    3.0257   17.5610 H   0  0  0  0  0
   -6.4689    5.1065   16.4745 H   0  0  0  0  0
   -5.3651    5.5699   14.4505 H   0  0  0  0  0
   -4.3350    4.0263   13.0134 H   0  0  0  0  0
   -4.1360    1.7376   13.1896 H   0  0  0  0  0
   -5.5350    2.3025   15.4821 H   0  0  0  0  0
   -5.1359   -0.4400   15.4234 H   0  0  0  0  0
  1  2  1  0  0  0
  2  3  2  0  0  0
  2  8  1  0  0  0
  3  4  1  0  0  0
  4  5  2  0  0  0
  5  6  1  0  0  0
  6  7  2  0  0  0
  7  8  1  0  0  0
  8  9  1  0  0  0
  1 10  1  0  0  0
  3 11  1  0  0  0
  4 12  1  0  0  0
  5 13  1  0  0  0
  6 14  1  0  0  0
  7 15  1  0  0  0
  8 16  1  0  0  0
  9 17  1  0  0  0
M  END
$$$$
