3kry_ligand
  -I-interpret- 

 59 61  0  0  0  0  0  0  0  0999 V2000
  -10.5830   -0.1720    4.3190 S   0  0  0  0  0
  -10.0070   -0.9410    2.9040 C   0  0  0  0  0
  -10.9100   -1.4420    1.9630 C   0  0  0  0  0
  -10.4330   -2.0520    0.7960 C   0  0  0  0  0
   -9.0550   -2.1590    0.5620 C   0  0  0  0  0
   -8.1640   -1.6490    1.5010 C   0  0  0  0  0
   -8.6330   -1.0380    2.6680 C   0  0  0  0  0
  -10.6740    1.5490    4.0860 C   0  0  0  0  0
   -9.5980    2.0950    3.1350 C   0  0  0  0  0
   -8.3480    2.3700    3.5390 N   0  0  0  0  0
   -7.4900    2.6460    2.7150 O   0  0  0  0  0
   -9.5490   -0.5730    5.5940 O   0  0  0  0  0
  -12.0770   -0.8780    4.6500 O   0  0  0  0  0
   -9.8680    2.3430    1.9620 O   0  0  0  0  0
  -12.0720    1.7570    3.4630 C   0  0  0  0  0
  -12.5240    3.2250    3.4240 C   0  0  0  0  0
  -12.4630    3.7420    4.8150 N   0  3  0  0  0
  -11.0690    3.7960    5.3590 C   0  0  0  0  0
  -10.5330    2.3450    5.4030 C   0  0  0  0  0
  -13.7160    3.8470    5.6280 C   0  0  0  0  0
  -14.0760    2.5870    6.4300 C   0  0  0  0  0
  -15.3890    2.6810    7.0150 O   0  0  0  0  0
  -15.3550    2.6960    8.4490 C   0  0  0  0  0
   -8.5610   -2.7290   -0.5360 O   0  0  0  0  0
   -9.2290   -3.2680   -1.5660 C   0  0  0  0  0
   -9.9550   -2.4320   -2.4160 C   0  0  0  0  0
  -10.6650   -2.9550   -3.4900 C   0  0  0  0  0
  -10.6390   -4.3360   -3.6920 C   0  0  0  0  0
   -9.9280   -5.1890   -2.8450 C   0  0  0  0  0
   -9.2130   -4.6460   -1.7670 C   0  0  0  0  0
  -11.3350   -4.8270   -4.7070 O   0  0  0  0  0
  -10.8530   -5.2110   -6.0150 C   0  0  0  0  0
   -9.7850   -6.0110   -5.8860 F   0  0  0  0  0
  -10.4900   -4.1230   -6.7060 F   0  0  0  0  0
  -11.7890   -5.8770   -6.7200 F   0  0  0  0  0
  -11.9828   -1.3584    2.1366 H   0  0  0  0  0
  -11.1383   -2.4464    0.0645 H   0  0  0  0  0
   -7.0910   -1.7264    1.3254 H   0  0  0  0  0
   -7.9262   -0.6369    3.3944 H   0  0  0  0  0
  -12.7866    1.2141    4.0816 H   0  0  0  0  0
  -12.0233    1.4053    2.4324 H   0  0  0  0  0
  -13.5372    3.3037    3.0299 H   0  0  0  0  0
  -11.8762    3.8082    2.7696 H   0  0  0  0  0
  -12.6800    4.7309    4.9388 H   0  0  0  0  0
  -11.0649    4.2352    6.3566 H   0  0  0  0  0
  -10.4359    4.4182    4.7264 H   0  0  0  0  0
   -9.4658    2.4127    5.6142 H   0  0  0  0  0
  -11.1232    1.8167    6.1518 H   0  0  0  0  0
  -14.5329    4.0183    4.9270 H   0  0  0  0  0
  -13.5558    4.6461    6.3518 H   0  0  0  0  0
  -13.3499    2.4747    7.2351 H   0  0  0  0  0
  -14.0640    1.7342    5.7512 H   0  0  0  0  0
  -14.8925    1.7773    8.8098 H   0  0  0  0  0
  -14.7748    3.5540    8.7884 H   0  0  0  0  0
  -16.3720    2.7680    8.8345 H   0  0  0  0  0
   -9.9651   -1.3571   -2.2353 H   0  0  0  0  0
  -11.2281   -2.3032   -4.1580 H   0  0  0  0  0
   -9.9286   -6.2649   -3.0196 H   0  0  0  0  0
   -8.6516   -5.2949   -1.0948 H   0  0  0  0  0
  1  2  1  0  0  0
  1  8  1  0  0  0
  1 12  2  0  0  0
  1 13  2  0  0  0
  2  3  4  0  0  0
  2  7  4  0  0  0
  3  4  4  0  0  0
  4  5  4  0  0  0
  5  6  4  0  0  0
  5 24  1  0  0  0
  6  7  4  0  0  0
  8  9  1  0  0  0
  8 15  1  0  0  0
  8 19  1  0  0  0
  9 10  1  0  0  0
  9 14  2  0  0  0
 10 11  2  0  0  0
 15 16  1  0  0  0
 16 17  1  0  0  0
 17 18  1  0  0  0
 17 20  1  0  0  0
 18 19  1  0  0  0
 20 21  1  0  0  0
 21 22  1  0  0  0
 22 23  1  0  0  0
 24 25  1  0  0  0
 25 26  4  0  0  0
 25 30  4  0  0  0
 26 27  4  0  0  0
 27 28  4  0  0  0
 28 29  4  0  0  0
 28 31  1  0  0  0
 29 30  4  0  0  0
 31 32  1  0  0  0
 32 33  1  0  0  0
 32 34  1  0  0  0
 32 35  1  0  0  0
  3 36  1  0  0  0
  4 37  1  0  0  0
  6 38  1  0  0  0
  7 39  1  0  0  0
 15 40  1  0  0  0
 15 41  1  0  0  0
 16 42  1  0  0  0
 16 43  1  0  0  0
 17 44  1  0  0  0
 18 45  1  0  0  0
 18 46  1  0  0  0
 19 47  1  0  0  0
 19 48  1  0  0  0
 20 49  1  0  0  0
 20 50  1  0  0  0
 21 51  1  0  0  0
 21 52  1  0  0  0
 23 53  1  0  0  0
 23 54  1  0  0  0
 23 55  1  0  0  0
 26 56  1  0  0  0
 27 57  1  0  0  0
 29 58  1  0  0  0
 30 59  1  0  0  0
M  END
$$$$
