4luz_ligand
  -I-interpret- 

 59 63  0  0  0  0  0  0  0  0999 V2000
  -17.6170   13.6990  -18.4240 C   0  0  0  0  0
  -18.6070   13.5410  -17.6520 O   0  0  0  0  0
  -16.8790   14.7240  -18.3400 O   0  0  0  0  0
  -17.2910   12.6800  -19.4660 C   0  0  0  0  0
  -18.0490   11.5560  -19.8290 C   0  0  0  0  0
  -17.2940   10.9250  -20.8720 C   0  0  0  0  0
  -16.1560   11.7260  -21.0480 C   0  0  0  0  0
  -16.2030   12.7270  -20.2020 O   0  0  0  0  0
  -15.0390   11.5020  -22.0120 C   0  0  0  0  0
  -13.8700   12.2450  -21.8870 C   0  0  0  0  0
  -12.8240   12.0410  -22.7750 C   0  0  0  0  0
  -12.9510   11.0900  -23.7780 C   0  0  0  0  0
  -14.1150   10.3470  -23.9000 C   0  0  0  0  0
  -15.1640   10.5560  -23.0180 C   0  0  0  0  0
  -11.8340   10.8540  -24.7380 C   0  0  0  0  0
  -11.2410   11.9560  -25.3150 O   0  0  0  0  0
   -9.9370   12.2420  -24.9870 C   0  0  0  0  0
   -8.9550   11.2820  -25.1660 C   0  0  0  0  0
   -7.6330   11.5610  -24.8460 C   0  0  0  0  0
   -7.2930   12.8070  -24.3470 C   0  0  0  0  0
   -8.2830   13.7630  -24.1700 C   0  0  0  0  0
   -9.6050   13.4900  -24.4850 C   0  0  0  0  0
   -5.8810   13.1480  -23.9780 C   0  0  0  0  0
   -5.2040   14.3580  -24.3080 C   0  0  0  0  0
   -3.9100   14.2210  -23.7370 C   0  0  0  0  0
   -3.8740   13.0460  -23.1340 N   0  0  0  0  0
   -5.0230   12.4120  -23.2660 N   0  0  0  0  0
   -5.2320   11.1190  -22.7000 C   0  0  0  0  0
   -4.9670    9.9860  -23.4530 C   0  0  0  0  0
   -5.1510    8.7320  -22.8950 C   0  0  0  0  0
   -5.5900    8.6200  -21.5880 C   0  0  0  0  0
   -5.8490    9.7520  -20.8290 C   0  0  0  0  0
   -5.6620   11.0060  -21.3860 C   0  0  0  0  0
   -4.8790    7.5070  -23.7060 C   0  0  0  0  0
   -2.7770   15.1900  -23.7720 C   0  0  0  0  0
   -2.1970   15.4840  -22.6920 O   0  0  0  0  0
   -2.3990   15.6960  -24.8610 O   0  0  0  0  0
  -16.1842   14.6717  -19.0004 H   0  0  0  0  0
  -19.0022   11.2335  -19.4101 H   0  0  0  0  0
  -17.5504   10.0147  -21.4139 H   0  0  0  0  0
  -13.7759   12.9859  -21.0931 H   0  0  0  0  0
  -11.9075   12.6242  -22.6856 H   0  0  0  0  0
  -14.2053    9.5996  -24.6882 H   0  0  0  0  0
  -16.0835    9.9788  -23.1150 H   0  0  0  0  0
  -12.2727   10.2934  -25.5635 H   0  0  0  0  0
  -11.0482   10.3705  -24.1577 H   0  0  0  0  0
   -9.2215   10.3015  -25.5605 H   0  0  0  0  0
   -6.8646   10.8009  -24.9873 H   0  0  0  0  0
   -8.0169   14.7443  -23.7770 H   0  0  0  0  0
  -10.3744   14.2483  -24.3395 H   0  0  0  0  0
   -5.5937   15.2037  -24.8746 H   0  0  0  0  0
   -4.6152   10.0816  -24.4802 H   0  0  0  0  0
   -5.7339    7.6323  -21.1500 H   0  0  0  0  0
   -6.1975    9.6550  -19.8008 H   0  0  0  0  0
   -5.8521   11.9012  -20.7939 H   0  0  0  0  0
   -5.5250    7.5032  -24.5839 H   0  0  0  0  0
   -3.8355    7.5057  -24.0211 H   0  0  0  0  0
   -5.0787    6.6215  -23.1025 H   0  0  0  0  0
   -2.6127   15.0105  -21.9677 H   0  0  0  0  0
  1  2  2  0  0  0
  1  3  1  0  0  0
  1  4  1  0  0  0
  4  5  4  0  0  0
  4  8  4  0  0  0
  5  6  4  0  0  0
  6  7  4  0  0  0
  7  8  4  0  0  0
  7  9  1  0  0  0
  9 10  4  0  0  0
  9 14  4  0  0  0
 10 11  4  0  0  0
 11 12  4  0  0  0
 12 13  4  0  0  0
 12 15  1  0  0  0
 13 14  4  0  0  0
 15 16  1  0  0  0
 16 17  1  0  0  0
 17 18  4  0  0  0
 17 22  4  0  0  0
 18 19  4  0  0  0
 19 20  4  0  0  0
 20 21  4  0  0  0
 20 23  1  0  0  0
 21 22  4  0  0  0
 23 24  4  0  0  0
 23 27  4  0  0  0
 24 25  4  0  0  0
 25 26  4  0  0  0
 25 35  1  0  0  0
 26 27  4  0  0  0
 27 28  1  0  0  0
 28 29  4  0  0  0
 28 33  4  0  0  0
 29 30  4  0  0  0
 30 31  4  0  0  0
 30 34  1  0  0  0
 31 32  4  0  0  0
 32 33  4  0  0  0
 35 36  1  0  0  0
 35 37  2  0  0  0
  3 38  1  0  0  0
  5 39  1  0  0  0
  6 40  1  0  0  0
 10 41  1  0  0  0
 11 42  1  0  0  0
 13 43  1  0  0  0
 14 44  1  0  0  0
 15 45  1  0  0  0
 15 46  1  0  0  0
 18 47  1  0  0  0
 19 48  1  0  0  0
 21 49  1  0  0  0
 22 50  1  0  0  0
 24 51  1  0  0  0
 29 52  1  0  0  0
 31 53  1  0  0  0
 32 54  1  0  0  0
 33 55  1  0  0  0
 34 56  1  0  0  0
 34 57  1  0  0  0
 34 58  1  0  0  0
 36 59  1  0  0  0
M  END
$$$$
