3uw9_ligand
  -I-interpret- 

 89 88  0  0  0  0  0  0  0  0999 V2000
   42.2550    8.2900   46.6020 O   0  0  0  0  0
   41.6840    7.3630   47.1820 C   0  0  0  0  0
   40.5960    7.6100   48.1990 C   0  0  0  0  0
   42.2890    6.2120   47.0890 N   0  0  0  0  0
   41.9330    4.8270   47.2220 C   0  0  0  0  0
   42.6390    4.4150   45.8930 C   0  0  0  0  0
   42.4850    3.0150   45.2650 C   0  0  0  0  0
   41.0710    2.5330   45.0990 C   0  0  0  0  0
   41.0840    1.1120   44.5330 C   0  0  0  0  0
   41.1410    0.0790   45.6470 N   0  3  0  0  0
   39.9030    0.9870   43.5520 C   0  0  0  0  0
   40.1180    0.6450   42.3920 O   0  0  0  0  0
   38.6700    1.2570   43.9830 N   0  0  0  0  0
   37.5730    1.1450   43.0180 C   0  0  0  0  0
   36.3150    0.3780   43.3570 C   0  0  0  0  0
   36.0350    0.0930   44.5090 O   0  0  0  0  0
   35.5260    0.0900   42.3200 N   0  0  0  0  0
   34.2150   -0.5230   42.4840 C   0  0  0  0  0
   34.3190   -1.9250   43.0870 C   0  0  0  0  0
   33.3940   -2.3650   43.7900 O   0  0  0  0  0
   33.4810   -0.5600   41.1480 C   0  0  0  0  0
   32.9880    0.8310   40.7500 C   0  0  0  0  0
   32.4910    0.8480   39.3040 C   0  0  0  0  0
   31.9040    1.3190   41.7180 C   0  0  0  0  0
   35.4520   -2.5880   42.8320 N   0  0  0  0  0
   35.7710   -3.9010   43.4140 C   0  0  0  0  0
   35.2450   -5.0640   42.5800 C   0  0  0  0  0
   34.4280   -5.8500   43.0690 O   0  0  0  0  0
   29.4780   -6.1550   35.3310 O   0  0  0  0  0
   30.6110   -5.6800   35.3030 C   0  0  0  0  0
   30.9750   -4.7490   34.1720 C   0  0  0  0  0
   31.5190   -5.9160   36.2820 N   0  0  0  0  0
   32.8670   -5.3220   36.3810 C   0  0  0  0  0
   33.7180   -5.9900   37.5030 C   0  0  0  0  0
   33.3040   -5.6390   38.9550 C   0  0  0  0  0
   34.0580   -6.5250   39.9870 C   0  0  0  0  0
   35.5240   -6.0380   40.1400 C   0  0  0  0  0
   35.7050   -5.1810   41.3280 N   0  0  0  0  0
   36.5610   -7.2090   40.0840 C   0  0  0  0  0
   37.7702   -6.9688   39.8236 O   0  0  0  0  0
   36.1865   -8.3926   40.2995 O   0  0  0  0  0
   40.9963    8.2044   49.0203 H   0  0  0  0  0
   39.7740    8.1478   47.7265 H   0  0  0  0  0
   40.2349    6.6555   48.5819 H   0  0  0  0  0
   43.2769    6.3250   46.8615 H   0  0  0  0  0
   40.8776    4.5801   47.3370 H   0  0  0  0  0
   42.2250    4.3105   48.1364 H   0  0  0  0  0
   43.6978    4.4593   46.1483 H   0  0  0  0  0
   42.1823    5.0724   45.1532 H   0  0  0  0  0
   42.9742    2.3151   45.9425 H   0  0  0  0  0
   42.9123    3.0748   44.2640 H   0  0  0  0  0
   40.5385    3.1934   44.4145 H   0  0  0  0  0
   40.5688    2.5357   46.0664 H   0  0  0  0  0
   41.9889    0.9055   43.9615 H   0  0  0  0  0
   41.1485   -0.8568   45.2412 H   0  0  0  0  0
   41.9889    0.2195   46.1963 H   0  0  0  0  0
   40.3237    0.1836   46.2482 H   0  0  0  0  0
   38.4968    1.5317   44.9499 H   0  0  0  0  0
   38.0068    0.5884   42.1873 H   0  0  0  0  0
   37.2301    2.1713   42.8865 H   0  0  0  0  0
   35.8529    0.3070   41.3785 H   0  0  0  0  0
   33.6432    0.0878   43.1826 H   0  0  0  0  0
   32.6193   -1.2209   41.2424 H   0  0  0  0  0
   34.1695   -0.9175   40.3824 H   0  0  0  0  0
   33.8301    1.5201   40.8139 H   0  0  0  0  0
   33.3053    0.5630   38.6379 H   0  0  0  0  0
   31.6675    0.1421   39.1959 H   0  0  0  0  0
   32.1471    1.8509   39.0511 H   0  0  0  0  0
   31.0622    0.6269   41.6976 H   0  0  0  0  0
   32.3137    1.3651   42.7270 H   0  0  0  0  0
   31.5681    2.3108   41.4153 H   0  0  0  0  0
   36.1304   -2.1611   42.2011 H   0  0  0  0  0
   35.2980   -3.9541   44.3946 H   0  0  0  0  0
   36.8564   -3.9893   43.4608 H   0  0  0  0  0
   30.8695   -5.2741   33.2226 H   0  0  0  0  0
   30.3109   -3.8848   34.1864 H   0  0  0  0  0
   32.0065   -4.4182   34.2931 H   0  0  0  0  0
   31.2449   -6.5651   37.0195 H   0  0  0  0  0
   32.7568   -4.2644   36.6206 H   0  0  0  0  0
   33.3773   -5.4739   35.4299 H   0  0  0  0  0
   34.7381   -5.6277   37.3755 H   0  0  0  0  0
   33.5842   -7.0663   37.3942 H   0  0  0  0  0
   32.2337   -5.8149   39.0629 H   0  0  0  0  0
   33.5547   -4.5953   39.1448 H   0  0  0  0  0
   34.0592   -7.5576   39.6379 H   0  0  0  0  0
   33.5559   -6.4554   40.9520 H   0  0  0  0  0
   35.7304   -5.4139   39.2705 H   0  0  0  0  0
   36.3931   -4.4530   41.1359 H   0  0  0  0  0
   37.8857   -6.0256   39.6869 H   0  0  0  0  0
  2  1  2  0  0  0
  2  3  1  0  0  0
  4  2  1  0  0  0
  5  4  1  0  0  0
  6  5  1  0  0  0
  7  6  1  0  0  0
  8  7  1  0  0  0
  9  8  1  0  0  0
  9 10  1  0  0  0
 11  9  1  0  0  0
 11 12  2  0  0  0
 13 11  1  0  0  0
 14 13  1  0  0  0
 15 14  1  0  0  0
 15 16  2  0  0  0
 17 15  1  0  0  0
 18 17  1  0  0  0
 19 18  1  0  0  0
 18 21  1  0  0  0
 19 20  2  0  0  0
 25 19  1  0  0  0
 21 22  1  0  0  0
 22 23  1  0  0  0
 22 24  1  0  0  0
 26 25  1  0  0  0
 27 26  1  0  0  0
 27 28  2  0  0  0
 38 27  1  0  0  0
 30 29  2  0  0  0
 30 31  1  0  0  0
 32 30  1  0  0  0
 33 32  1  0  0  0
 34 33  1  0  0  0
 35 34  1  0  0  0
 36 35  1  0  0  0
 37 36  1  0  0  0
 37 38  1  0  0  0
 37 39  1  0  0  0
 39 40  1  0  0  0
 39 41  2  0  0  0
  3 42  1  0  0  0
  3 43  1  0  0  0
  3 44  1  0  0  0
  4 45  1  0  0  0
  5 46  1  0  0  0
  5 47  1  0  0  0
  6 48  1  0  0  0
  6 49  1  0  0  0
  7 50  1  0  0  0
  7 51  1  0  0  0
  8 52  1  0  0  0
  8 53  1  0  0  0
  9 54  1  0  0  0
 10 55  1  0  0  0
 10 56  1  0  0  0
 10 57  1  0  0  0
 13 58  1  0  0  0
 14 59  1  0  0  0
 14 60  1  0  0  0
 17 61  1  0  0  0
 18 62  1  0  0  0
 21 63  1  0  0  0
 21 64  1  0  0  0
 22 65  1  0  0  0
 23 66  1  0  0  0
 23 67  1  0  0  0
 23 68  1  0  0  0
 24 69  1  0  0  0
 24 70  1  0  0  0
 24 71  1  0  0  0
 25 72  1  0  0  0
 26 73  1  0  0  0
 26 74  1  0  0  0
 31 75  1  0  0  0
 31 76  1  0  0  0
 31 77  1  0  0  0
 32 78  1  0  0  0
 33 79  1  0  0  0
 33 80  1  0  0  0
 34 81  1  0  0  0
 34 82  1  0  0  0
 35 83  1  0  0  0
 35 84  1  0  0  0
 36 85  1  0  0  0
 36 86  1  0  0  0
 37 87  1  0  0  0
 38 88  1  0  0  0
 40 89  1  0  0  0
M  END
$$$$
