### 
### Created by X-TOOL on Mon Sep 10 21:13:10 2018
### 

@<TRIPOS>MOLECULE
3uw9_ligand
   88    87     1     0     0
SMALL
GAST_HUCK


@<TRIPOS>ATOM
      1 OH         42.2550    8.2900   46.6020 O.2       1 ALY        -0.3974
      2 CH         41.6840    7.3630   47.1820 C.2       1 ALY         0.1729
      3 CH3        40.5960    7.6100   48.1990 C.3       1 ALY         0.0256
      4 NZ         42.2890    6.2120   47.0890 N.am      1 ALY        -0.2872
      5 CE         41.9330    4.8270   47.2220 C.3       1 ALY         0.0309
      6 CD         42.6390    4.4150   45.8930 C.3       1 ALY        -0.0324
      7 CG         42.4850    3.0150   45.2650 C.3       1 ALY        -0.0439
      8 CB         41.0710    2.5330   45.0990 C.3       1 ALY         0.0079
      9 CA         41.0840    1.1120   44.5330 C.3       1 ALY         0.0650
     10 N          41.1410    0.0790   45.6470 N.4       1 ALY         0.2379
     11 C          39.9030    0.9870   43.5520 C.2       1 ALY         0.2265
     12 O          40.1180    0.6450   42.3920 O.2       1 ALY        -0.3907
     13 N          38.6700    1.2570   43.9830 N.am      1 GLY        -0.2637
     14 CA         37.5730    1.1450   43.0180 C.3       1 GLY         0.1202
     15 C          36.3150    0.3780   43.3570 C.2       1 GLY         0.2007
     16 O          36.0350    0.0930   44.5090 O.2       1 GLY        -0.3947
     17 N          35.5260    0.0900   42.3200 N.am      1 LEU        -0.2640
     18 CA         34.2150   -0.5230   42.4840 C.3       1 LEU         0.1312
     19 C          34.3190   -1.9250   43.0870 C.2       1 LEU         0.2037
     20 O          33.3940   -2.3650   43.7900 O.2       1 LEU        -0.3944
     21 CB         33.4810   -0.5600   41.1480 C.3       1 LEU        -0.0101
     22 CG         32.9880    0.8310   40.7500 C.3       1 LEU        -0.0425
     23 CD1        32.4910    0.8480   39.3040 C.3       1 LEU        -0.0625
     24 CD2        31.9040    1.3190   41.7180 C.3       1 LEU        -0.0625
     25 N          35.4520   -2.5880   42.8320 N.am      1 GLY        -0.2664
     26 CA         35.7710   -3.9010   43.4140 C.3       1 GLY         0.1201
     27 C          35.2450   -5.0640   42.5800 C.2       1 GLY         0.2002
     28 O          34.4280   -5.8500   43.0690 O.2       1 GLY        -0.3947
     29 OH         29.4780   -6.1550   35.3310 O.2       1 ALY        -0.3974
     30 CH         30.6110   -5.6800   35.3030 C.2       1 ALY         0.1729
     31 CH3        30.9750   -4.7490   34.1720 C.3       1 ALY         0.0256
     32 NZ         31.5190   -5.9160   36.2820 N.am      1 ALY        -0.2872
     33 CE         32.8670   -5.3220   36.3810 C.3       1 ALY         0.0309
     34 CD         33.7180   -5.9900   37.5030 C.3       1 ALY        -0.0326
     35 CG         33.3040   -5.6390   38.9550 C.3       1 ALY        -0.0476
     36 CB         34.0580   -6.5250   39.9870 C.3       1 ALY        -0.0179
     37 CA         35.5240   -6.0380   40.1400 C.3       1 ALY         0.0944
     38 N          35.7050   -5.1810   41.3280 N.am      1 ALY        -0.2697
     39 C          36.5610   -7.2090   40.0840 C.2       1 ALY         0.0601
     40 O          37.7702   -6.9688   39.8236 O.co2     1 ALY        -0.5666
     41 H          40.9963    8.2044   49.0203 H         1 ALY         0.0467
     42 H          39.7740    8.1478   47.7265 H         1 ALY         0.0467
     43 H          40.2349    6.6555   48.5819 H         1 ALY         0.0467
     44 H          43.2769    6.3250   46.8615 H         1 ALY         0.1850
     45 H          40.8776    4.5801   47.3370 H         1 ALY         0.0520
     46 H          42.2250    4.3105   48.1364 H         1 ALY         0.0520
     47 H          43.6978    4.4593   46.1483 H         1 ALY         0.0285
     48 H          42.1823    5.0724   45.1532 H         1 ALY         0.0285
     49 H          42.9742    2.3151   45.9425 H         1 ALY         0.0269
     50 H          42.9123    3.0748   44.2640 H         1 ALY         0.0269
     51 H          40.5385    3.1934   44.4145 H         1 ALY         0.0346
     52 H          40.5688    2.5357   46.0664 H         1 ALY         0.0346
     53 H          41.9889    0.9055   43.9615 H         1 ALY         0.1098
     54 H          41.1485   -0.8568   45.2412 H         1 ALY         0.2015
     55 H          41.9889    0.2195   46.1963 H         1 ALY         0.2015
     56 H          40.3237    0.1836   46.2482 H         1 ALY         0.2015
     57 H          38.4968    1.5317   44.9499 H         1 GLY         0.1882
     58 H          38.0068    0.5884   42.1873 H         1 GLY         0.0763
     59 H          37.2301    2.1713   42.8865 H         1 GLY         0.0763
     60 H          35.8529    0.3070   41.3785 H         1 LEU         0.1883
     61 H          33.6432    0.0878   43.1826 H         1 LEU         0.0800
     62 H          32.6193   -1.2209   41.2424 H         1 LEU         0.0315
     63 H          34.1695   -0.9175   40.3824 H         1 LEU         0.0315
     64 H          33.8301    1.5201   40.8139 H         1 LEU         0.0298
     65 H          33.3053    0.5630   38.6379 H         1 LEU         0.0232
     66 H          31.6675    0.1421   39.1959 H         1 LEU         0.0232
     67 H          32.1471    1.8509   39.0511 H         1 LEU         0.0232
     68 H          31.0622    0.6269   41.6976 H         1 LEU         0.0232
     69 H          32.3137    1.3651   42.7270 H         1 LEU         0.0232
     70 H          31.5681    2.3108   41.4153 H         1 LEU         0.0232
     71 H          36.1304   -2.1611   42.2011 H         1 GLY         0.1881
     72 H          35.2980   -3.9541   44.3946 H         1 GLY         0.0763
     73 H          36.8564   -3.9893   43.4608 H         1 GLY         0.0763
     74 H          30.8695   -5.2741   33.2226 H         1 GLY         0.0467
     75 H          30.3109   -3.8848   34.1864 H         1 GLY         0.0467
     76 H          32.0065   -4.4182   34.2931 H         1 GLY         0.0467
     77 H          31.2449   -6.5651   37.0195 H         1 GLY         0.1850
     78 H          32.7568   -4.2644   36.6206 H         1 GLY         0.0520
     79 H          33.3773   -5.4739   35.4299 H         1 GLY         0.0520
     80 H          34.7381   -5.6277   37.3755 H         1 GLY         0.0285
     81 H          33.5842   -7.0663   37.3942 H         1 GLY         0.0285
     82 H          32.2337   -5.8149   39.0629 H         1 GLY         0.0268
     83 H          33.5547   -4.5953   39.1448 H         1 GLY         0.0268
     84 H          34.0592   -7.5576   39.6379 H         1 GLY         0.0305
     85 H          33.5559   -6.4554   40.9520 H         1 GLY         0.0305
     86 H          35.7304   -5.4139   39.2705 H         1 GLY         0.0726
     87 H          36.3931   -4.4530   41.1359 H         1 GLY         0.1875
     88 O          36.1865   -8.3926   40.2995 O.co2     1 GLY        -0.5666
@<TRIPOS>BOND
     1    2    1 2  
     2    2    3 1  
     3    4    2 am 
     4    5    4 1  
     5    6    5 1  
     6    7    6 1  
     7    8    7 1  
     8    9    8 1  
     9    9   10 1  
    10   11    9 1  
    11   11   12 2  
    12   13   11 am 
    13   14   13 1  
    14   15   14 1  
    15   15   16 2  
    16   17   15 am 
    17   18   17 1  
    18   19   18 1  
    19   18   21 1  
    20   19   20 2  
    21   25   19 am 
    22   21   22 1  
    23   22   23 1  
    24   22   24 1  
    25   26   25 1  
    26   27   26 1  
    27   27   28 2  
    28   38   27 am 
    29   30   29 2  
    30   30   31 1  
    31   32   30 am 
    32   33   32 1  
    33   34   33 1  
    34   35   34 1  
    35   36   35 1  
    36   37   36 1  
    37   37   38 1  
    38   37   39 1  
    39   39   40 ar 
    40    3   41 1  
    41    3   42 1  
    42    3   43 1  
    43    4   44 1  
    44    5   45 1  
    45    5   46 1  
    46    6   47 1  
    47    6   48 1  
    48    7   49 1  
    49    7   50 1  
    50    8   51 1  
    51    8   52 1  
    52    9   53 1  
    53   10   54 1  
    54   10   55 1  
    55   10   56 1  
    56   13   57 1  
    57   14   58 1  
    58   14   59 1  
    59   17   60 1  
    60   18   61 1  
    61   21   62 1  
    62   21   63 1  
    63   22   64 1  
    64   23   65 1  
    65   23   66 1  
    66   23   67 1  
    67   24   68 1  
    68   24   69 1  
    69   24   70 1  
    70   25   71 1  
    71   26   72 1  
    72   26   73 1  
    73   31   74 1  
    74   31   75 1  
    75   31   76 1  
    76   32   77 1  
    77   33   78 1  
    78   33   79 1  
    79   34   80 1  
    80   34   81 1  
    81   35   82 1  
    82   35   83 1  
    83   36   84 1  
    84   36   85 1  
    85   37   86 1  
    86   38   87 1  
    87   39   88 ar 
@<TRIPOS>SUBSTRUCTURE
     1 ALY         1

