3qkl_ligand
  -I-interpret- 

 79 83  0  0  0  0  0  0  0  0999 V2000
   -6.8730   -2.2620   17.8320 C   0  0  0  0  0
   -6.1470   -2.9440   19.0350 C   0  0  0  0  0
   -5.6490   -1.9180   20.0990 C   0  0  0  0  0
   -6.8070   -0.9570   20.4900 C   0  0  0  0  0
   -8.0290   -1.3610   18.3140 C   0  0  0  0  0
   -5.9520   -1.3970   17.1260 O   0  0  0  0  0
   -4.8340   -1.9690   16.5330 C   0  0  0  0  0
   -4.8660   -3.3400   16.1460 C   0  0  0  0  0
   -6.1240   -4.1970   16.3720 C   0  0  0  0  0
   -7.3510   -3.3450   16.8090 C   0  0  0  0  0
   -3.6760   -1.1620   16.3210 C   0  0  0  0  0
   -2.5020   -1.6930   15.7320 C   0  0  0  0  0
   -2.5620   -3.0650   15.3660 C   0  0  0  0  0
   -3.6860   -3.8680   15.5580 C   0  0  0  0  0
   -1.5980   -3.8520   14.7850 N   0  0  0  0  0
   -2.1160   -5.1280   14.6240 N   0  0  0  0  0
   -3.3720   -5.1780   15.0690 C   0  0  0  0  0
   -8.6080    0.5890   19.7720 C   0  0  0  0  0
   -9.1600    1.4730   18.6220 C   0  0  0  0  0
   -9.9630    2.6730   19.2040 C   0  0  0  0  0
   -8.0240    1.8840   17.8270 O   0  0  0  0  0
  -10.9950    3.3480   18.3300 N   0  0  0  0  0
  -10.9560    4.8280   18.5770 C   0  0  0  0  0
   -9.7970    5.5800   17.8760 C   0  0  0  0  0
  -12.1460    0.8980   17.4030 C   0  0  0  0  0
  -11.5710    0.7980   16.1050 C   0  0  0  0  0
  -11.2030   -0.4610   15.5840 C   0  0  0  0  0
  -11.4040   -1.6210   16.3610 C   0  0  0  0  0
  -11.9770   -1.5360   17.6490 C   0  0  0  0  0
  -12.3450   -0.2800   18.1770 C   0  0  0  0  0
  -12.9430   -0.2650   19.5720 C   0  0  0  0  0
  -11.3260    2.0280   15.2460 C   0  0  0  0  0
  -10.3090    6.6490   17.0650 O   0  0  0  0  0
   -9.3030    8.8780   17.0950 C   0  0  0  0  0
  -10.3710    7.9320   17.6980 C   0  0  0  0  0
  -12.5860    2.5750   18.0320 S   0  0  0  0  0
  -13.2550    2.5020   19.3480 O   0  0  0  0  0
  -13.3110    3.3220   16.9940 O   0  0  0  0  0
   -7.5360   -0.3480   19.3180 N   0  3  0  0  0
   -5.2759   -3.4704   18.6449 H   0  0  0  0  0
   -6.8594   -3.6105   19.5211 H   0  0  0  0  0
   -4.8259   -1.3380   19.6815 H   0  0  0  0  0
   -5.3122   -2.4547   20.9859 H   0  0  0  0  0
   -6.3639   -0.1352   21.0525 H   0  0  0  0  0
   -7.5353   -1.5451   21.0485 H   0  0  0  0  0
   -8.7870   -1.9850   18.7875 H   0  0  0  0  0
   -8.4438   -0.8322   17.4558 H   0  0  0  0  0
   -5.9080   -4.9103   17.1674 H   0  0  0  0  0
   -6.3718   -4.6874   15.4306 H   0  0  0  0  0
   -7.7941   -2.8613   15.9385 H   0  0  0  0  0
   -8.1002   -3.9866   17.2728 H   0  0  0  0  0
   -3.6953   -0.1137   16.6189 H   0  0  0  0  0
   -1.6099   -1.0881   15.5699 H   0  0  0  0  0
   -4.0313   -6.0460   15.0622 H   0  0  0  0  0
   -9.4329   -0.0094   20.1587 H   0  0  0  0  0
   -8.1773    1.2500   20.5241 H   0  0  0  0  0
   -9.8608    0.9290   17.9887 H   0  0  0  0  0
   -9.2170    3.4415   19.4065 H   0  0  0  0  0
  -10.5270    2.2579   20.0393 H   0  0  0  0  0
   -8.3254    2.4356   17.1014 H   0  0  0  0  0
  -10.8155    4.9639   19.6493 H   0  0  0  0  0
  -11.8836    5.2378   18.1772 H   0  0  0  0  0
   -9.2549    4.8808   17.2393 H   0  0  0  0  0
   -9.1351    5.9970   18.6350 H   0  0  0  0  0
  -10.7665   -0.5364   14.5881 H   0  0  0  0  0
  -11.1140   -2.5934   15.9630 H   0  0  0  0  0
  -12.1351   -2.4410   18.2356 H   0  0  0  0  0
  -12.3176    0.3411   20.2275 H   0  0  0  0  0
  -13.9464    0.1587   19.5312 H   0  0  0  0  0
  -12.9929   -1.2841   19.9555 H   0  0  0  0  0
  -12.2733    2.5340   15.0597 H   0  0  0  0  0
  -10.6478    2.7040   15.7667 H   0  0  0  0  0
  -10.8819    1.7248   14.2979 H   0  0  0  0  0
   -8.3122    8.4507   17.2495 H   0  0  0  0  0
   -9.4863    8.9970   16.0271 H   0  0  0  0  0
   -9.3616    9.8496   17.5855 H   0  0  0  0  0
  -10.1810    7.8132   18.7647 H   0  0  0  0  0
  -11.3598    8.3617   17.5375 H   0  0  0  0  0
   -6.8462    0.2030   18.8071 H   0  0  0  0  0
  1  2  1  0  0  0
  5  1  1  0  0  0
  1  6  1  0  0  0
  1 10  1  0  0  0
  3  2  1  0  0  0
  4  3  1  0  0  0
 39  4  1  0  0  0
 39  5  1  0  0  0
  6  7  1  0  0  0
  7  8  4  0  0  0
  7 11  4  0  0  0
  9  8  1  0  0  0
  8 14  4  0  0  0
 10  9  1  0  0  0
 11 12  4  0  0  0
 12 13  4  0  0  0
 14 13  4  0  0  0
 13 15  4  0  0  0
 14 17  4  0  0  0
 16 15  4  0  0  0
 17 16  4  0  0  0
 19 18  1  0  0  0
 18 39  1  0  0  0
 20 19  1  0  0  0
 19 21  1  0  0  0
 22 20  1  0  0  0
 22 23  1  0  0  0
 36 22  1  0  0  0
 23 24  1  0  0  0
 24 33  1  0  0  0
 25 26  4  0  0  0
 25 30  4  0  0  0
 25 36  1  0  0  0
 26 27  4  0  0  0
 26 32  1  0  0  0
 27 28  4  0  0  0
 28 29  4  0  0  0
 29 30  4  0  0  0
 30 31  1  0  0  0
 33 35  1  0  0  0
 35 34  1  0  0  0
 36 37  2  0  0  0
 36 38  2  0  0  0
  2 40  1  0  0  0
  2 41  1  0  0  0
  3 42  1  0  0  0
  3 43  1  0  0  0
  4 44  1  0  0  0
  4 45  1  0  0  0
  5 46  1  0  0  0
  5 47  1  0  0  0
  9 48  1  0  0  0
  9 49  1  0  0  0
 10 50  1  0  0  0
 10 51  1  0  0  0
 11 52  1  0  0  0
 12 53  1  0  0  0
 17 54  1  0  0  0
 18 55  1  0  0  0
 18 56  1  0  0  0
 19 57  1  0  0  0
 20 58  1  0  0  0
 20 59  1  0  0  0
 21 60  1  0  0  0
 23 61  1  0  0  0
 23 62  1  0  0  0
 24 63  1  0  0  0
 24 64  1  0  0  0
 27 65  1  0  0  0
 28 66  1  0  0  0
 29 67  1  0  0  0
 31 68  1  0  0  0
 31 69  1  0  0  0
 31 70  1  0  0  0
 32 71  1  0  0  0
 32 72  1  0  0  0
 32 73  1  0  0  0
 34 74  1  0  0  0
 34 75  1  0  0  0
 34 76  1  0  0  0
 35 77  1  0  0  0
 35 78  1  0  0  0
 39 79  1  0  0  0
M  END
$$$$
