### 
### Created by X-TOOL on Mon Sep 10 21:13:06 2018
### 

@<TRIPOS>MOLECULE
3qkl_ligand
   79    83     1     0     0
SMALL
GAST_HUCK


@<TRIPOS>ATOM
      1 C1         -6.8730   -2.2620   17.8320 C.3       1 SMR         0.0709
      2 C2         -6.1470   -2.9440   19.0350 C.3       1 SMR        -0.0237
      3 C3         -5.6490   -1.9180   20.0990 C.3       1 SMR        -0.0689
      4 C4         -6.8070   -0.9570   20.4900 C.3       1 SMR        -0.1127
      5 C5         -8.0290   -1.3610   18.3140 C.3       1 SMR        -0.0792
      6 O6         -5.9520   -1.3970   17.1260 O.3       1 SMR        -0.3255
      7 C7         -4.8340   -1.9690   16.5330 C.ar      1 SMR         0.0815
      8 C8         -4.8660   -3.3400   16.1460 C.ar      1 SMR        -0.0157
      9 C9         -6.1240   -4.1970   16.3720 C.3       1 SMR        -0.0205
     10 C10        -7.3510   -3.3450   16.8090 C.3       1 SMR        -0.0139
     11 C11        -3.6760   -1.1620   16.3210 C.ar      1 SMR        -0.0471
     12 C12        -2.5020   -1.6930   15.7320 C.ar      1 SMR        -0.0486
     13 C13        -2.5620   -3.0650   15.3660 C.ar      1 SMR         0.0725
     14 C14        -3.6860   -3.8680   15.5580 C.ar      1 SMR         0.0042
     15 N15        -1.5980   -3.8520   14.7850 N.pl3     1 SMR        -0.2214
     16 N16        -2.1160   -5.1280   14.6240 N.2       1 SMR        -0.2126
     17 C17        -3.3720   -5.1780   15.0690 C.2       1 SMR         0.0145
     18 C18        -8.6080    0.5890   19.7720 C.3       1 SMR        -0.0847
     19 C19        -9.1600    1.4730   18.6220 C.3       1 SMR         0.0539
     20 C20        -9.9630    2.6730   19.2040 C.3       1 SMR         0.0536
     21 O21        -8.0240    1.8840   17.8270 O.3       1 SMR        -0.3922
     22 N22       -10.9950    3.3480   18.3300 N.am      1 SMR        -0.2313
     23 C23       -10.9560    4.8280   18.5770 C.3       1 SMR         0.0529
     24 C24        -9.7970    5.5800   17.8760 C.3       1 SMR         0.0646
     25 C25       -12.1460    0.8980   17.4030 C.ar      1 SMR         0.1099
     26 C26       -11.5710    0.7980   16.1050 C.ar      1 SMR        -0.0263
     27 C27       -11.2030   -0.4610   15.5840 C.ar      1 SMR        -0.0657
     28 C28       -11.4040   -1.6210   16.3610 C.ar      1 SMR        -0.0751
     29 C29       -11.9770   -1.5360   17.6490 C.ar      1 SMR        -0.0657
     30 C30       -12.3450   -0.2800   18.1770 C.ar      1 SMR        -0.0263
     31 C31       -12.9430   -0.2650   19.5720 C.3       1 SMR        -0.0309
     32 C32       -11.3260    2.0280   15.2460 C.3       1 SMR        -0.0309
     33 O33       -10.3090    6.6490   17.0650 O.3       1 SMR        -0.3784
     34 C34        -9.3030    8.8780   17.0950 C.3       1 SMR        -0.0416
     35 C35       -10.3710    7.9320   17.6980 C.3       1 SMR         0.0449
     36 S36       -12.5860    2.5750   18.0320 S.o2      1 SMR         0.0655
     37 O37       -13.2550    2.5020   19.3480 O.2       1 SMR        -0.1523
     38 O38       -13.3110    3.3220   16.9940 O.2       1 SMR        -0.1523
     39 N39        -7.5360   -0.3480   19.3180 N.4       1 SMR         0.4068
     40 H          -5.2759   -3.4704   18.6449 H         1 SMR         0.0295
     41 H          -6.8594   -3.6105   19.5211 H         1 SMR         0.0295
     42 H          -4.8259   -1.3380   19.6815 H         1 SMR         0.0247
     43 H          -5.3122   -2.4547   20.9859 H         1 SMR         0.0247
     44 H          -6.3639   -0.1352   21.0525 H         1 SMR         0.0017
     45 H          -7.5353   -1.5451   21.0485 H         1 SMR         0.0017
     46 H          -8.7870   -1.9850   18.7875 H         1 SMR         0.0049
     47 H          -8.4438   -0.8322   17.4558 H         1 SMR         0.0049
     48 H          -5.9080   -4.9103   17.1674 H         1 SMR         0.0405
     49 H          -6.3718   -4.6874   15.4306 H         1 SMR         0.0405
     50 H          -7.7941   -2.8613   15.9385 H         1 SMR         0.0316
     51 H          -8.1002   -3.9866   17.2728 H         1 SMR         0.0316
     52 H          -3.6953   -0.1137   16.6189 H         1 SMR         0.0508
     53 H          -1.6099   -1.0881   15.5699 H         1 SMR         0.0473
     54 H          -0.6613   -3.5495   14.5177 H         1 SMR         0.2418
     55 H          -4.0313   -6.0460   15.0622 H         1 SMR         0.0699
     56 H          -9.4329   -0.0094   20.1587 H         1 SMR         0.0043
     57 H          -8.1773    1.2500   20.5241 H         1 SMR         0.0043
     58 H          -9.8608    0.9290   17.9887 H         1 SMR         0.0589
     59 H          -9.2170    3.4415   19.4065 H         1 SMR         0.0503
     60 H         -10.5270    2.2579   20.0393 H         1 SMR         0.0503
     61 H          -7.4243    2.4001   18.3707 H         1 SMR         0.2098
     62 H         -10.8155    4.9639   19.6493 H         1 SMR         0.0501
     63 H         -11.8836    5.2378   18.1772 H         1 SMR         0.0501
     64 H          -9.2549    4.8808   17.2393 H         1 SMR         0.0576
     65 H          -9.1351    5.9970   18.6350 H         1 SMR         0.0576
     66 H         -10.7665   -0.5364   14.5881 H         1 SMR         0.0500
     67 H         -11.1140   -2.5934   15.9630 H         1 SMR         0.0582
     68 H         -12.1351   -2.4410   18.2356 H         1 SMR         0.0500
     69 H         -13.8530   -0.8649   19.5823 H         1 SMR         0.0390
     70 H         -12.2244   -0.6804   20.2785 H         1 SMR         0.0390
     71 H         -13.1796    0.7611   19.8535 H         1 SMR         0.0390
     72 H         -12.2733    2.5340   15.0597 H         1 SMR         0.0390
     73 H         -10.6478    2.7040   15.7667 H         1 SMR         0.0390
     74 H         -10.8819    1.7248   14.2979 H         1 SMR         0.0390
     75 H          -8.3122    8.4507   17.2495 H         1 SMR         0.0252
     76 H          -9.4863    8.9970   16.0271 H         1 SMR         0.0252
     77 H          -9.3616    9.8496   17.5855 H         1 SMR         0.0252
     78 H         -10.1810    7.8132   18.7647 H         1 SMR         0.0557
     79 H         -11.3598    8.3617   17.5375 H         1 SMR         0.0557
@<TRIPOS>BOND
     1    1    2 1  
     2    5    1 1  
     3    1    6 1  
     4    1   10 1  
     5    3    2 1  
     6    4    3 1  
     7   39    4 1  
     8   39    5 1  
     9    6    7 1  
    10    7    8 ar 
    11    7   11 ar 
    12    9    8 1  
    13    8   14 ar 
    14   10    9 1  
    15   11   12 ar 
    16   12   13 ar 
    17   14   13 ar 
    18   13   15 1  
    19   14   17 1  
    20   16   15 1  
    21   17   16 2  
    22   19   18 1  
    23   18   39 1  
    24   20   19 1  
    25   19   21 1  
    26   22   20 1  
    27   22   23 1  
    28   36   22 am 
    29   23   24 1  
    30   24   33 1  
    31   25   26 ar 
    32   25   30 ar 
    33   25   36 1  
    34   26   27 ar 
    35   26   32 1  
    36   27   28 ar 
    37   28   29 ar 
    38   29   30 ar 
    39   30   31 1  
    40   33   35 1  
    41   35   34 1  
    42   36   37 2  
    43   36   38 2  
    44    2   40 1  
    45    2   41 1  
    46    3   42 1  
    47    3   43 1  
    48    4   44 1  
    49    4   45 1  
    50    5   46 1  
    51    5   47 1  
    52    9   48 1  
    53    9   49 1  
    54   10   50 1  
    55   10   51 1  
    56   11   52 1  
    57   12   53 1  
    58   15   54 1  
    59   17   55 1  
    60   18   56 1  
    61   18   57 1  
    62   19   58 1  
    63   20   59 1  
    64   20   60 1  
    65   21   61 1  
    66   23   62 1  
    67   23   63 1  
    68   24   64 1  
    69   24   65 1  
    70   27   66 1  
    71   28   67 1  
    72   29   68 1  
    73   31   69 1  
    74   31   70 1  
    75   31   71 1  
    76   32   72 1  
    77   32   73 1  
    78   32   74 1  
    79   34   75 1  
    80   34   76 1  
    81   34   77 1  
    82   35   78 1  
    83   35   79 1  
@<TRIPOS>SUBSTRUCTURE
     1 SMR         1

