1ax0_ligand
  -I-interpret- 

 30 30  0  0  0  0  0  0  0  0999 V2000
   17.1550   -1.2410   36.3640 C   0  0  0  0  0
   16.0900   -0.6370   35.4390 C   0  0  0  0  0
   14.7130   -1.2450   35.7220 C   0  0  0  0  0
   14.8010   -2.7670   35.6700 C   0  0  0  0  0
   15.8730   -3.2350   36.6450 C   0  0  0  0  0
   16.0380   -4.7420   36.6550 C   0  0  0  0  0
   16.1870    1.6330   34.6300 C   0  0  0  0  0
   16.1100    3.1200   34.9420 C   0  0  0  0  0
   16.0300    0.7960   35.6500 N   0  0  0  0  0
   16.8900   -0.8870   37.6750 O   0  0  0  0  0
   13.7740   -0.7820   34.7560 O   0  0  0  0  0
   15.1410   -3.1810   34.3550 O   0  0  0  0  0
   17.1480   -2.6690   36.2790 O   0  0  0  0  0
   16.8280   -5.1560   37.7590 O   0  0  0  0  0
   16.3880    1.2560   33.4760 O   0  0  0  0  0
   18.1276   -0.8601   36.0524 H   0  0  0  0  0
   16.3626   -0.8560   34.4066 H   0  0  0  0  0
   14.3835   -0.9397   36.7151 H   0  0  0  0  0
   13.8389   -3.2002   35.9434 H   0  0  0  0  0
   15.5512   -2.9073   37.6335 H   0  0  0  0  0
   16.5346   -5.0470   35.7339 H   0  0  0  0  0
   15.0534   -5.2025   36.7355 H   0  0  0  0  0
   17.0514    3.5965   34.6687 H   0  0  0  0  0
   15.2958    3.5678   34.3722 H   0  0  0  0  0
   15.9278    3.2573   36.0079 H   0  0  0  0  0
   15.8663    1.1640   36.5871 H   0  0  0  0  0
   16.8903    0.0698   37.7532 H   0  0  0  0  0
   13.7235    0.1759   34.7940 H   0  0  0  0  0
   14.4638   -2.8848   33.7424 H   0  0  0  0  0
   16.9191   -6.1116   37.7454 H   0  0  0  0  0
  1 13  1  0  0  0
  1 10  1  0  0  0
  1  2  1  0  0  0
  2  9  1  0  0  0
  2  3  1  0  0  0
  3 11  1  0  0  0
  3  4  1  0  0  0
  4 12  1  0  0  0
  4  5  1  0  0  0
 13  5  1  0  0  0
  5  6  1  0  0  0
  6 14  1  0  0  0
  9  7  1  0  0  0
  7 15  2  0  0  0
  7  8  1  0  0  0
  1 16  1  0  0  0
  2 17  1  0  0  0
  3 18  1  0  0  0
  4 19  1  0  0  0
  5 20  1  0  0  0
  6 21  1  0  0  0
  6 22  1  0  0  0
  8 23  1  0  0  0
  8 24  1  0  0  0
  8 25  1  0  0  0
  9 26  1  0  0  0
 10 27  1  0  0  0
 11 28  1  0  0  0
 12 29  1  0  0  0
 14 30  1  0  0  0
M  END
$$$$
