5h85_ligand
  -I-interpret- 

 32 34  0  0  0  0  0  0  0  0999 V2000
  -15.6670   -9.4480   23.4910 C   0  0  0  0  0
  -14.8690  -10.1680   24.4920 N   0  0  0  0  0
  -13.7360   -9.5700   25.2450 C   0  0  0  0  0
  -12.4550   -9.3560   27.1580 C   0  0  0  0  0
  -11.6730   -8.2770   25.1980 C   0  0  0  0  0
  -12.7560   -8.7710   24.5160 C   0  0  0  0  0
  -17.6070   -9.6770   21.8830 C   0  0  0  0  0
  -20.3000   -7.8630   19.1440 C   0  0  0  0  0
  -19.4680   -8.3380   20.2000 O   0  0  0  0  0
  -19.4730   -9.7860   20.2760 C   0  0  0  0  0
  -20.2620  -10.4310   19.6310 O   0  0  0  0  0
  -18.4880  -10.4640   21.1770 C   0  0  0  0  0
  -18.4780  -11.8480   21.3080 C   0  0  0  0  0
  -17.5560  -12.4560   22.1490 C   0  0  0  0  0
  -16.6660  -11.6740   22.8500 C   0  0  0  0  0
  -16.7000  -10.2810   22.7370 C   0  0  0  0  0
  -15.4980   -8.3060   23.2650 O   0  0  0  0  0
  -13.5280   -9.8520   26.5380 N   0  0  0  0  0
  -11.5410   -8.5850   26.5260 N   0  0  0  0  0
  -10.9400   -7.5580   24.3200 N   0  0  0  0  0
  -11.5330   -7.5950   23.1430 C   0  0  0  0  0
  -12.6460   -8.3310   23.2470 N   0  0  0  0  0
  -15.1079  -11.1411   24.6826 H   0  0  0  0  0
  -12.3098   -9.5811   28.2146 H   0  0  0  0  0
  -17.6231   -8.5929   21.7713 H   0  0  0  0  0
  -19.9405   -8.2585   18.1940 H   0  0  0  0  0
  -21.3244   -8.1950   19.3129 H   0  0  0  0  0
  -20.2689   -6.7737   19.1206 H   0  0  0  0  0
  -19.1926  -12.4544   20.7515 H   0  0  0  0  0
  -17.5370  -13.5408   22.2532 H   0  0  0  0  0
  -15.9280  -12.1453   23.4991 H   0  0  0  0  0
  -11.1761   -7.1072   22.2359 H   0  0  0  0  0
  1  2  1  0  0  0
 16  1  1  0  0  0
  1 17  2  0  0  0
  2  3  1  0  0  0
  3  6  4  0  0  0
  3 18  4  0  0  0
 18  4  4  0  0  0
  4 19  4  0  0  0
  6  5  4  0  0  0
  5 19  4  0  0  0
  5 20  4  0  0  0
  6 22  4  0  0  0
 12  7  4  0  0  0
  7 16  4  0  0  0
  9  8  1  0  0  0
 10  9  1  0  0  0
 10 11  2  0  0  0
 10 12  1  0  0  0
 12 13  4  0  0  0
 13 14  4  0  0  0
 14 15  4  0  0  0
 15 16  4  0  0  0
 20 21  4  0  0  0
 21 22  4  0  0  0
  2 23  1  0  0  0
  4 24  1  0  0  0
  7 25  1  0  0  0
  8 26  1  0  0  0
  8 27  1  0  0  0
  8 28  1  0  0  0
 13 29  1  0  0  0
 14 30  1  0  0  0
 15 31  1  0  0  0
 21 32  1  0  0  0
M  END
$$$$
