2f2c_ligand
  -I-interpret- 

 54 56  0  0  0  0  0  0  0  0999 V2000
   27.4990   22.7740   58.0140 O   0  0  0  0  0
   28.4380   22.0740   58.8400 C   0  0  0  0  0
   29.8230   22.1260   58.1860 C   0  0  0  0  0
   30.4190   20.7610   57.8500 C   0  0  0  0  0
   31.8920   20.9050   57.4820 C   0  0  0  0  0
   29.6500   20.0820   56.7200 C   0  0  0  0  0
   30.7740   22.9020   58.9760 N   0  0  0  0  0
   30.9780   22.8650   60.3210 C   0  0  0  0  0
   31.8580   23.7890   60.7880 N   0  0  0  0  0
   32.1810   23.8960   62.0980 C   0  0  0  0  0
   31.5440   22.9630   63.0390 C   0  0  0  0  0
   32.0290   23.2780   64.2540 N   0  0  0  0  0
   32.8930   24.3140   64.1050 C   0  0  0  0  0
   32.9950   24.6910   62.8170 N   0  0  0  0  0
   33.8670   25.8130   62.3340 C   0  0  0  0  0
   33.3530   27.0990   62.9770 C   0  0  0  0  0
   33.7960   26.0270   60.8190 C   0  0  0  0  0
   30.5920   21.9480   62.4950 C   0  0  0  0  0
   30.3580   21.9660   61.1510 N   0  0  0  0  0
   29.9800   21.0910   63.3560 N   0  0  0  0  0
   29.6030   19.8100   63.1530 C   0  0  0  0  0
   30.1820   18.8130   63.9450 C   0  0  0  0  0
   29.8090   17.4750   63.8060 C   0  0  0  0  0
   30.3920   16.5260   64.5730 N   0  0  0  0  0
   28.8350   17.1250   62.8750 C   0  0  0  0  0
   28.2440   18.1190   62.0910 C   0  0  0  0  0
   27.2030   17.7230   61.0850 Cl  0  0  0  0  0
   28.6150   19.4640   62.2290 C   0  0  0  0  0
   26.6304   22.7428   58.4217 H   0  0  0  0  0
   28.1247   21.0358   58.9502 H   0  0  0  0  0
   28.4803   22.5428   59.8231 H   0  0  0  0  0
   29.6475   22.6297   57.2354 H   0  0  0  0  0
   30.3358   20.1297   58.7347 H   0  0  0  0  0
   32.3192   19.9179   57.3052 H   0  0  0  0  0
   31.9822   21.5084   56.5788 H   0  0  0  0  0
   32.4237   21.3912   58.2999 H   0  0  0  0  0
   29.7323   20.6826   55.8141 H   0  0  0  0  0
   30.0693   19.0920   56.5405 H   0  0  0  0  0
   28.6011   19.9882   57.0012 H   0  0  0  0  0
   31.3594   23.5542   58.4542 H   0  0  0  0  0
   33.4363   24.7822   64.9258 H   0  0  0  0  0
   34.8950   25.5631   62.5965 H   0  0  0  0  0
   32.3175   27.2639   62.6792 H   0  0  0  0  0
   33.4106   27.0095   64.0618 H   0  0  0  0  0
   33.9652   27.9384   62.6474 H   0  0  0  0  0
   34.1170   25.1184   60.3096 H   0  0  0  0  0
   32.7704   26.2617   60.5342 H   0  0  0  0  0
   34.4502   26.8526   60.5389 H   0  0  0  0  0
   29.7780   21.4675   64.2822 H   0  0  0  0  0
   30.9368   19.0853   64.6828 H   0  0  0  0  0
   31.1050   16.7876   65.2539 H   0  0  0  0  0
   30.1187   15.5486   64.4706 H   0  0  0  0  0
   28.5357   16.0834   62.7586 H   0  0  0  0  0
   28.1369   20.2320   61.6210 H   0  0  0  0  0
  1  2  1  0  0  0
  2  3  1  0  0  0
  3  4  1  0  0  0
  3  7  1  0  0  0
  4  5  1  0  0  0
  4  6  1  0  0  0
  7  8  1  0  0  0
  8  9  4  0  0  0
  8 19  4  0  0  0
  9 10  4  0  0  0
 10 11  4  0  0  0
 10 14  4  0  0  0
 11 12  4  0  0  0
 11 18  4  0  0  0
 12 13  4  0  0  0
 13 14  4  0  0  0
 14 15  1  0  0  0
 15 16  1  0  0  0
 15 17  1  0  0  0
 18 19  4  0  0  0
 18 20  1  0  0  0
 20 21  1  0  0  0
 21 22  4  0  0  0
 21 28  4  0  0  0
 22 23  4  0  0  0
 23 24  1  0  0  0
 23 25  4  0  0  0
 25 26  4  0  0  0
 26 27  1  0  0  0
 26 28  4  0  0  0
  1 29  1  0  0  0
  2 30  1  0  0  0
  2 31  1  0  0  0
  3 32  1  0  0  0
  4 33  1  0  0  0
  5 34  1  0  0  0
  5 35  1  0  0  0
  5 36  1  0  0  0
  6 37  1  0  0  0
  6 38  1  0  0  0
  6 39  1  0  0  0
  7 40  1  0  0  0
 13 41  1  0  0  0
 15 42  1  0  0  0
 16 43  1  0  0  0
 16 44  1  0  0  0
 16 45  1  0  0  0
 17 46  1  0  0  0
 17 47  1  0  0  0
 17 48  1  0  0  0
 20 49  1  0  0  0
 22 50  1  0  0  0
 24 51  1  0  0  0
 24 52  1  0  0  0
 25 53  1  0  0  0
 28 54  1  0  0  0
M  END
$$$$
