1exw_ligand
  -I-interpret- 

 52 51  0  0  0  0  0  0  0  0999 V2000
   42.9280    9.5870   58.8790 C   0  0  0  0  0
   42.4020    8.1950   58.9090 C   0  0  0  0  0
   43.3180    7.4860   59.9130 C   0  0  0  0  0
   42.9660    5.9840   60.0950 C   0  0  0  0  0
   41.6680    5.9380   60.9320 C   0  0  0  0  0
   40.5870    5.1780   60.2490 C   0  0  0  0  0
   40.3280    3.8060   60.9430 C   0  0  0  0  0
   39.2100    3.1460   60.1060 C   0  0  0  0  0
   38.6800    1.8610   60.8410 C   0  0  0  0  0
   37.6330    1.2890   59.9530 C   0  0  0  0  0
   38.0770    0.3380   58.8450 C   0  0  0  0  0
   36.7940   -0.0060   58.1900 C   0  0  0  0  0
   36.3680   -1.4740   58.1560 C   0  0  0  0  0
   34.9320   -1.5630   57.7120 C   0  0  0  0  0
   34.4130   -3.0320   57.6580 C   0  0  0  0  0
   32.9770   -2.9910   57.7820 C   0  0  0  0  0
   42.4510   10.9840   59.0130 S   0  0  0  0  0
   41.3870   11.3750   57.7520 O   0  0  0  0  0
   41.4500   11.5150   60.4350 O   0  0  0  0  0
   43.1310    9.6236   57.8087 H   0  0  0  0  0
   43.4609    9.5425   59.8288 H   0  0  0  0  0
   42.4152    7.7228   57.9267 H   0  0  0  0  0
   41.3523    8.1519   59.1994 H   0  0  0  0  0
   43.1964    7.9762   60.8789 H   0  0  0  0  0
   44.3380    7.5456   59.5333 H   0  0  0  0  0
   43.7738    5.4511   60.5966 H   0  0  0  0  0
   42.8269    5.4954   59.1306 H   0  0  0  0  0
   41.3226    6.9613   61.0795 H   0  0  0  0  0
   41.8898    5.4392   61.8754 H   0  0  0  0  0
   40.8927    4.9922   59.2194 H   0  0  0  0  0
   39.6703    5.7660   60.2930 H   0  0  0  0  0
   40.0363    3.9273   61.9862 H   0  0  0  0  0
   41.2275    3.1913   60.9756 H   0  0  0  0  0
   39.6088    2.8643   59.1315 H   0  0  0  0  0
   38.3897    3.8527   59.9804 H   0  0  0  0  0
   38.2766    2.1044   61.8239 H   0  0  0  0  0
   39.4834    1.1460   61.0184 H   0  0  0  0  0
   37.1889    2.1428   59.4413 H   0  0  0  0  0
   36.9927    0.6952   60.6052 H   0  0  0  0  0
   38.6147   -0.5335   59.2183 H   0  0  0  0  0
   38.8007    0.7835   58.1624 H   0  0  0  0  0
   36.9196    0.2802   57.1458 H   0  0  0  0  0
   36.0279    0.5012   58.7764 H   0  0  0  0  0
   36.4708   -1.9077   59.1507 H   0  0  0  0  0
   37.0011   -2.0224   57.4585 H   0  0  0  0  0
   34.8644   -1.1456   56.7074 H   0  0  0  0  0
   34.3229   -1.0177   58.4330 H   0  0  0  0  0
   34.8482   -3.6193   58.4666 H   0  0  0  0  0
   34.7005   -3.5028   56.7179 H   0  0  0  0  0
   32.7087   -2.5269   58.7311 H   0  0  0  0  0
   32.5591   -2.4090   56.9605 H   0  0  0  0  0
   32.5815   -4.0061   57.7478 H   0  0  0  0  0
  1  2  1  0  0  0
  1 17  1  0  0  0
  2  3  1  0  0  0
  3  4  1  0  0  0
  4  5  1  0  0  0
  5  6  1  0  0  0
  6  7  1  0  0  0
  7  8  1  0  0  0
  8  9  1  0  0  0
  9 10  1  0  0  0
 10 11  1  0  0  0
 11 12  1  0  0  0
 12 13  1  0  0  0
 13 14  1  0  0  0
 14 15  1  0  0  0
 15 16  1  0  0  0
 17 18  4  0  0  0
 17 19  4  0  0  0
  1 20  1  0  0  0
  1 21  1  0  0  0
  2 22  1  0  0  0
  2 23  1  0  0  0
  3 24  1  0  0  0
  3 25  1  0  0  0
  4 26  1  0  0  0
  4 27  1  0  0  0
  5 28  1  0  0  0
  5 29  1  0  0  0
  6 30  1  0  0  0
  6 31  1  0  0  0
  7 32  1  0  0  0
  7 33  1  0  0  0
  8 34  1  0  0  0
  8 35  1  0  0  0
  9 36  1  0  0  0
  9 37  1  0  0  0
 10 38  1  0  0  0
 10 39  1  0  0  0
 11 40  1  0  0  0
 11 41  1  0  0  0
 12 42  1  0  0  0
 12 43  1  0  0  0
 13 44  1  0  0  0
 13 45  1  0  0  0
 14 46  1  0  0  0
 14 47  1  0  0  0
 15 48  1  0  0  0
 15 49  1  0  0  0
 16 50  1  0  0  0
 16 51  1  0  0  0
 16 52  1  0  0  0
M  END
$$$$
