5mk1_ligand
  -I-interpret- 

183184  0  0  0  0  0  0  0  0999 V2000
   12.1540   -4.3980   29.7540 N   0  3  0  0  0
   12.2000   -5.4680   28.7620 C   0  0  0  0  0
   11.3330   -5.1670   27.5380 C   0  0  0  0  0
   11.8290   -5.0360   26.4180 O   0  0  0  0  0
   11.7400   -6.8030   29.3690 C   0  0  0  0  0
   12.1000   -7.0230   30.8280 C   0  0  0  0  0
   13.4810   -7.6070   31.0220 C   0  0  0  0  0
   13.8140   -8.6200   30.3710 O   0  0  0  0  0
   14.2390   -7.0360   31.8270 O   0  0  0  0  0
   10.0250   -5.0690   27.7860 N   0  0  0  0  0
    9.0360   -4.9660   26.7150 C   0  0  0  0  0
    9.0980   -3.6450   25.9530 C   0  0  0  0  0
    8.7140   -3.6040   24.7780 O   0  0  0  0  0
    7.6340   -5.1770   27.2840 C   0  0  0  0  0
    9.5620   -2.5620   26.5850 N   0  0  0  0  0
    9.5380   -1.2560   25.9250 C   0  0  0  0  0
   10.4580   -1.1920   24.7140 C   0  0  0  0  0
   10.1580   -0.4750   23.7520 O   0  0  0  0  0
    9.9170   -0.1580   26.9180 C   0  0  0  0  0
    8.8680    0.1970   27.9650 C   0  0  0  0  0
    9.5000    0.7810   29.2110 C   0  0  0  0  0
    7.9390    1.2210   27.3370 C   0  0  0  0  0
   11.5630   -1.9350   24.7270 N   0  0  0  0  0
   12.4250   -1.9600   23.5520 C   0  0  0  0  0
   11.7500   -2.6770   22.3850 C   0  0  0  0  0
   12.0170   -2.3520   21.2220 O   0  0  0  0  0
   13.7640   -2.6040   23.9210 C   0  0  0  0  0
   14.6480   -3.0010   22.7540 C   0  0  0  0  0
   14.6250   -4.5210   22.6190 C   0  0  0  0  0
   15.1000   -5.0130   21.2660 C   0  0  0  0  0
   15.0150   -6.4980   21.2120 N   0  3  0  0  0
   10.8490   -3.6200   22.6710 N   0  0  0  0  0
   10.0670   -4.2420   21.6080 C   0  0  0  0  0
    9.0280   -3.2760   21.0440 C   0  0  0  0  0
    8.8640   -3.1700   19.8230 O   0  0  0  0  0
    9.3830   -5.5090   22.1320 C   0  0  0  0  0
   10.3330   -6.6160   22.5700 C   0  0  0  0  0
    9.5970   -7.8420   23.0910 C   0  0  0  0  0
    8.9130   -7.7800   24.1140 O   0  0  0  0  0
    9.7590   -8.9710   22.4050 N   0  0  0  0  0
    8.3300   -2.5530   21.9240 N   0  0  0  0  0
    7.2840   -1.6310   21.4890 C   0  0  0  0  0
    7.8460   -0.3840   20.8210 C   0  0  0  0  0
    7.1540    0.2340   20.0020 O   0  0  0  0  0
    6.3960   -1.2400   22.6710 C   0  0  0  0  0
    5.6700   -2.3920   23.3740 C   0  0  0  0  0
    5.1970   -1.9410   24.7500 C   0  0  0  0  0
    4.5170   -2.9450   22.5480 C   0  0  0  0  0
    9.0650    0.0310   21.1760 N   0  0  0  0  0
    9.6310    1.2180   20.5410 C   0  0  0  0  0
    9.9040    0.9920   19.0560 C   0  0  0  0  0
    9.6540    1.8830   18.2370 O   0  0  0  0  0
   10.9020    1.6440   21.2700 C   0  0  0  0  0
   10.4230   -0.1810   18.6800 N   0  0  0  0  0
   10.4930   -0.5110   17.2580 C   0  0  0  0  0
    9.1090   -0.7210   16.6590 C   0  0  0  0  0
    8.8850   -0.3800   15.4900 O   0  0  0  0  0
   11.3990   -1.7160   17.0090 C   0  0  0  0  0
   12.8780   -1.3410   16.8450 C   0  0  0  0  0
   13.6300   -1.1910   18.1520 C   0  0  0  0  0
   13.8190   -0.0380   18.6020 O   0  0  0  0  0
   14.0530   -2.2220   18.7170 O   0  0  0  0  0
    8.1730   -1.2830   17.4310 N   0  0  0  0  0
    6.8310   -1.5080   16.9030 C   0  0  0  0  0
    6.1660   -0.2010   16.5010 C   0  0  0  0  0
    5.4420   -0.1570   15.4990 O   0  0  0  0  0
    5.9590   -2.2140   17.9390 C   0  0  0  0  0
    4.6190   -2.6480   17.3960 C   0  0  0  0  0
    4.3480   -3.7670   16.6580 C   0  0  0  0  0
    3.3760   -1.9360   17.5140 C   0  0  0  0  0
    3.0110   -3.8090   16.3340 N   0  0  0  0  0
    2.3920   -2.6980   16.8460 C   0  0  0  0  0
    2.9980   -0.7340   18.1290 C   0  0  0  0  0
    1.0560   -2.2970   16.7760 C   0  0  0  0  0
    1.6700   -0.3380   18.0570 C   0  0  0  0  0
    0.7150   -1.1190   17.3830 C   0  0  0  0  0
    6.4350    0.8800   17.2370 N   0  0  0  0  0
    5.7680    2.1510   16.9860 C   0  0  0  0  0
    6.2380    2.7970   15.6920 C   0  0  0  0  0
    5.5820    3.7200   15.1940 O   0  0  0  0  0
    5.9820    3.1120   18.1760 C   0  0  0  0  0
    7.3130    3.8420   18.0670 C   0  0  0  0  0
    4.8190    4.0690   18.3180 C   0  0  0  0  0
    7.3560    2.3390   15.1360 N   0  0  0  0  0
    7.8090    2.8080   13.8340 C   0  0  0  0  0
    8.2390    1.6220   12.9690 C   0  0  0  0  0
    7.5590    0.5930   12.9220 O   0  0  0  0  0
    8.9550    3.8070   13.9850 C   0  0  0  0  0
    9.4390    4.2190   12.7180 O   0  0  0  0  0
    9.2750    1.6690   12.3000 O   0  0  0  0  0
   12.4635   -3.5255   29.3258 H   0  0  0  0  0
   11.1980   -4.2913   30.0932 H   0  0  0  0  0
   12.7685   -4.6322   30.5337 H   0  0  0  0  0
   13.2402   -5.5388   28.4440 H   0  0  0  0  0
   12.2441   -7.5880   28.8053 H   0  0  0  0  0
   10.6513   -6.8069   29.3161 H   0  0  0  0  0
   11.3819   -7.7313   31.2412 H   0  0  0  0  0
   12.0809   -6.0516   31.3220 H   0  0  0  0  0
   13.0827   -8.8953   29.8134 H   0  0  0  0  0
    9.7054   -5.0659   28.7546 H   0  0  0  0  0
    9.2744   -5.7477   25.9938 H   0  0  0  0  0
    7.5727   -6.1659   27.7384 H   0  0  0  0  0
    7.4309   -4.4162   28.0377 H   0  0  0  0  0
    6.9016   -5.0989   26.4805 H   0  0  0  0  0
    9.9342   -2.6464   27.5309 H   0  0  0  0  0
    8.5200   -1.1015   25.5674 H   0  0  0  0  0
   10.0738    0.7445   26.3273 H   0  0  0  0  0
   10.7808   -0.5313   27.4682 H   0  0  0  0  0
    8.3310   -0.7022   28.2669 H   0  0  0  0  0
   10.1867    0.0534   29.6437 H   0  0  0  0  0
   10.0463    1.6871   28.9492 H   0  0  0  0  0
    8.7203    1.0213   29.9338 H   0  0  0  0  0
    8.5122    2.1032   27.0520 H   0  0  0  0  0
    7.4697    0.7898   26.4527 H   0  0  0  0  0
    7.1706    1.5024   28.0571 H   0  0  0  0  0
   11.8043   -2.4825   25.5531 H   0  0  0  0  0
   12.6109   -0.9383   23.2209 H   0  0  0  0  0
   13.5268   -3.5241   24.4550 H   0  0  0  0  0
   14.3194   -1.8571   24.4883 H   0  0  0  0  0
   15.6683   -2.6599   22.9291 H   0  0  0  0  0
   14.2793   -2.5418   21.8368 H   0  0  0  0  0
   13.5920   -4.8461   22.7425 H   0  0  0  0  0
   15.3001   -4.9278   23.3719 H   0  0  0  0  0
   16.1344   -4.7052   21.1131 H   0  0  0  0  0
   14.4694   -4.5871   20.4856 H   0  0  0  0  0
   15.3357   -6.8228   20.2998 H   0  0  0  0  0
   15.6036   -6.8978   21.9428 H   0  0  0  0  0
   14.0477   -6.7875   21.3565 H   0  0  0  0  0
   10.7065   -3.9074   23.6392 H   0  0  0  0  0
   10.7479   -4.5096   20.8000 H   0  0  0  0  0
    8.7889   -5.9096   21.3107 H   0  0  0  0  0
    8.8107   -5.2175   23.0127 H   0  0  0  0  0
   10.9533   -6.2273   23.3776 H   0  0  0  0  0
   10.9197   -6.9189   21.7027 H   0  0  0  0  0
    9.3079   -9.8293   22.7216 H   0  0  0  0  0
   10.3342   -8.9779   21.5627 H   0  0  0  0  0
    8.5315   -2.6466   22.9195 H   0  0  0  0  0
    6.6877   -2.1553   20.7423 H   0  0  0  0  0
    5.6201   -0.5884   22.2692 H   0  0  0  0  0
    7.0554   -0.7935   23.4153 H   0  0  0  0  0
    6.3803   -3.2104   23.4912 H   0  0  0  0  0
    6.0571   -1.6384   25.3473 H   0  0  0  0  0
    4.5148   -1.0981   24.6400 H   0  0  0  0  0
    4.6819   -2.7650   25.2438 H   0  0  0  0  0
    3.7912   -2.1530   22.3635 H   0  0  0  0  0
    4.8988   -3.3183   21.5977 H   0  0  0  0  0
    4.0383   -3.7583   23.0934 H   0  0  0  0  0
    9.5956   -0.4765   21.8840 H   0  0  0  0  0
    8.8965    2.0202   20.6117 H   0  0  0  0  0
   10.6644    1.8713   22.3092 H   0  0  0  0  0
   11.6304    0.8340   21.2312 H   0  0  0  0  0
   11.3159    2.5299   20.7884 H   0  0  0  0  0
   10.7669   -0.8395   19.3789 H   0  0  0  0  0
   10.9373    0.3445   16.7493 H   0  0  0  0  0
   11.0738   -2.1860   16.0809 H   0  0  0  0  0
   11.3200   -2.3719   17.8760 H   0  0  0  0  0
   12.9106   -0.3742   16.3426 H   0  0  0  0  0
   13.3550   -2.1493   16.2907 H   0  0  0  0  0
   13.4120    0.6039   18.0155 H   0  0  0  0  0
    8.3967   -1.5543   18.3885 H   0  0  0  0  0
    6.9324   -2.1368   16.0184 H   0  0  0  0  0
    5.7733   -1.5085   18.7489 H   0  0  0  0  0
    6.4899   -3.1100   18.2606 H   0  0  0  0  0
    5.0841   -4.5169   16.3684 H   0  0  0  0  0
    3.7327   -0.1228   18.6532 H   0  0  0  0  0
    0.3118   -2.9007   16.2566 H   0  0  0  0  0
    1.3622    0.5941   18.5309 H   0  0  0  0  0
   -0.3198   -0.7787   17.3431 H   0  0  0  0  0
    7.1206    0.8149   17.9894 H   0  0  0  0  0
    4.7030    1.9454   16.8780 H   0  0  0  0  0
    6.0219    2.5152   19.0872 H   0  0  0  0  0
    8.1250    3.1149   18.0581 H   0  0  0  0  0
    7.3331    4.4224   17.1446 H   0  0  0  0  0
    7.4307    4.5096   18.9205 H   0  0  0  0  0
    4.7215    4.6581   17.4061 H   0  0  0  0  0
    3.9028    3.5030   18.4862 H   0  0  0  0  0
    4.9977    4.7331   19.1637 H   0  0  0  0  0
    7.9098    1.6420   15.6339 H   0  0  0  0  0
    6.9807    3.3182   13.3423 H   0  0  0  0  0
    6.7885    0.6939   13.4857 H   0  0  0  0  0
    9.7675    3.3276   14.5311 H   0  0  0  0  0
    8.5879    4.6823   14.5210 H   0  0  0  0  0
   10.1568    4.8449   12.8390 H   0  0  0  0  0
  1  2  1  0  0  0
  2  3  1  0  0  0
  2  5  1  0  0  0
  3  4  2  0  0  0
  3 10  1  0  0  0
  5  6  1  0  0  0
  6  7  1  0  0  0
  7  8  1  0  0  0
  7  9  2  0  0  0
 10 11  1  0  0  0
 11 12  1  0  0  0
 11 14  1  0  0  0
 12 13  2  0  0  0
 12 15  1  0  0  0
 15 16  1  0  0  0
 16 17  1  0  0  0
 16 19  1  0  0  0
 17 18  2  0  0  0
 17 23  1  0  0  0
 19 20  1  0  0  0
 20 21  1  0  0  0
 20 22  1  0  0  0
 23 24  1  0  0  0
 24 25  1  0  0  0
 24 27  1  0  0  0
 25 26  2  0  0  0
 25 32  1  0  0  0
 27 28  1  0  0  0
 28 29  1  0  0  0
 29 30  1  0  0  0
 30 31  1  0  0  0
 32 33  1  0  0  0
 33 34  1  0  0  0
 33 36  1  0  0  0
 34 35  2  0  0  0
 34 41  1  0  0  0
 36 37  1  0  0  0
 37 38  1  0  0  0
 38 39  2  0  0  0
 38 40  1  0  0  0
 41 42  1  0  0  0
 42 43  1  0  0  0
 42 45  1  0  0  0
 43 44  2  0  0  0
 43 49  1  0  0  0
 45 46  1  0  0  0
 46 47  1  0  0  0
 46 48  1  0  0  0
 49 50  1  0  0  0
 50 51  1  0  0  0
 50 53  1  0  0  0
 51 52  2  0  0  0
 51 54  1  0  0  0
 54 55  1  0  0  0
 55 56  1  0  0  0
 55 58  1  0  0  0
 56 57  2  0  0  0
 56 63  1  0  0  0
 58 59  1  0  0  0
 59 60  1  0  0  0
 60 61  1  0  0  0
 60 62  2  0  0  0
 63 64  1  0  0  0
 64 65  1  0  0  0
 64 67  1  0  0  0
 65 66  2  0  0  0
 65 77  1  0  0  0
 67 68  1  0  0  0
 68 69  4  0  0  0
 68 70  4  0  0  0
 69 71  4  0  0  0
 70 72  4  0  0  0
 70 73  4  0  0  0
 71 72  4  0  0  0
 72 74  4  0  0  0
 73 75  4  0  0  0
 74 76  4  0  0  0
 75 76  4  0  0  0
 77 78  1  0  0  0
 78 79  1  0  0  0
 78 81  1  0  0  0
 79 80  2  0  0  0
 79 84  1  0  0  0
 81 82  1  0  0  0
 81 83  1  0  0  0
 84 85  1  0  0  0
 85 86  1  0  0  0
 85 88  1  0  0  0
 86 87  1  0  0  0
 86 90  2  0  0  0
 88 89  1  0  0  0
  1 91  1  0  0  0
  1 92  1  0  0  0
  1 93  1  0  0  0
  2 94  1  0  0  0
  5 95  1  0  0  0
  5 96  1  0  0  0
  6 97  1  0  0  0
  6 98  1  0  0  0
  8 99  1  0  0  0
 10100  1  0  0  0
 11101  1  0  0  0
 14102  1  0  0  0
 14103  1  0  0  0
 14104  1  0  0  0
 15105  1  0  0  0
 16106  1  0  0  0
 19107  1  0  0  0
 19108  1  0  0  0
 20109  1  0  0  0
 21110  1  0  0  0
 21111  1  0  0  0
 21112  1  0  0  0
 22113  1  0  0  0
 22114  1  0  0  0
 22115  1  0  0  0
 23116  1  0  0  0
 24117  1  0  0  0
 27118  1  0  0  0
 27119  1  0  0  0
 28120  1  0  0  0
 28121  1  0  0  0
 29122  1  0  0  0
 29123  1  0  0  0
 30124  1  0  0  0
 30125  1  0  0  0
 31126  1  0  0  0
 31127  1  0  0  0
 31128  1  0  0  0
 32129  1  0  0  0
 33130  1  0  0  0
 36131  1  0  0  0
 36132  1  0  0  0
 37133  1  0  0  0
 37134  1  0  0  0
 40135  1  0  0  0
 40136  1  0  0  0
 41137  1  0  0  0
 42138  1  0  0  0
 45139  1  0  0  0
 45140  1  0  0  0
 46141  1  0  0  0
 47142  1  0  0  0
 47143  1  0  0  0
 47144  1  0  0  0
 48145  1  0  0  0
 48146  1  0  0  0
 48147  1  0  0  0
 49148  1  0  0  0
 50149  1  0  0  0
 53150  1  0  0  0
 53151  1  0  0  0
 53152  1  0  0  0
 54153  1  0  0  0
 55154  1  0  0  0
 58155  1  0  0  0
 58156  1  0  0  0
 59157  1  0  0  0
 59158  1  0  0  0
 61159  1  0  0  0
 63160  1  0  0  0
 64161  1  0  0  0
 67162  1  0  0  0
 67163  1  0  0  0
 69164  1  0  0  0
 73165  1  0  0  0
 74166  1  0  0  0
 75167  1  0  0  0
 76168  1  0  0  0
 77169  1  0  0  0
 78170  1  0  0  0
 81171  1  0  0  0
 82172  1  0  0  0
 82173  1  0  0  0
 82174  1  0  0  0
 83175  1  0  0  0
 83176  1  0  0  0
 83177  1  0  0  0
 84178  1  0  0  0
 85179  1  0  0  0
 87180  1  0  0  0
 88181  1  0  0  0
 88182  1  0  0  0
 89183  1  0  0  0
M  END
$$$$
