### 
### Created by X-TOOL on Mon Sep 10 21:13:31 2018
### 

@<TRIPOS>MOLECULE
5mk1_ligand
  181   182     1     0     0
SMALL
GAST_HUCK


@<TRIPOS>ATOM
      1 N          12.1540   -4.3980   29.7540 N.4       1 GLU         0.2380
      2 CA         12.2000   -5.4680   28.7620 C.3       1 GLU         0.0665
      3 C          11.3330   -5.1670   27.5380 C.2       1 GLU         0.2268
      4 O          11.8290   -5.0360   26.4180 O.2       1 GLU        -0.3907
      5 CB         11.7400   -6.8030   29.3690 C.3       1 GLU         0.0194
      6 CG         12.1000   -7.0230   30.8280 C.3       1 GLU         0.0075
      7 CD         13.4810   -7.6070   31.0220 C.2       1 GLU         0.0351
      8 OE1        13.8140   -8.6200   30.3710 O.co2     1 GLU        -0.5690
      9 OE2        14.2390   -7.0360   31.8270 O.co2     1 GLU        -0.5690
     10 N          10.0250   -5.0690   27.7860 N.am      1 ALA        -0.2613
     11 CA          9.0360   -4.9660   26.7150 C.3       1 ALA         0.1283
     12 C           9.0980   -3.6450   25.9530 C.2       1 ALA         0.2036
     13 O           8.7140   -3.6040   24.7780 O.2       1 ALA        -0.3944
     14 CB          7.6340   -5.1770   27.2840 C.3       1 ALA        -0.0244
     15 N           9.5620   -2.5620   26.5850 N.am      1 LEU        -0.2637
     16 CA          9.5380   -1.2560   25.9250 C.3       1 LEU         0.1312
     17 C          10.4580   -1.1920   24.7140 C.2       1 LEU         0.2039
     18 O          10.1580   -0.4750   23.7520 O.2       1 LEU        -0.3944
     19 CB          9.9170   -0.1580   26.9180 C.3       1 LEU        -0.0101
     20 CG          8.8680    0.1970   27.9650 C.3       1 LEU        -0.0425
     21 CD1         9.5000    0.7810   29.2110 C.3       1 LEU        -0.0625
     22 CD2         7.9390    1.2210   27.3370 C.3       1 LEU        -0.0625
     23 N          11.5630   -1.9350   24.7270 N.am      1 LYS        -0.2637
     24 CA         12.4250   -1.9600   23.5520 C.3       1 LYS         0.1310
     25 C          11.7500   -2.6770   22.3850 C.2       1 LYS         0.2039
     26 O          12.0170   -2.3520   21.2220 O.2       1 LYS        -0.3944
     27 CB         13.7640   -2.6040   23.9210 C.3       1 LYS        -0.0122
     28 CG         14.6480   -3.0010   22.7540 C.3       1 LYS        -0.0440
     29 CD         14.6250   -4.5210   22.6190 C.3       1 LYS        -0.0124
     30 CE         15.1000   -5.0130   21.2660 C.3       1 LYS        -0.0354
     31 NZ         15.0150   -6.4980   21.2120 N.4       1 LYS         0.2185
     32 N          10.8490   -3.6200   22.6710 N.am      1 GLN        -0.2636
     33 CA         10.0670   -4.2420   21.6080 C.3       1 GLN         0.1330
     34 C           9.0280   -3.2760   21.0440 C.2       1 GLN         0.2040
     35 O           8.8640   -3.1700   19.8230 O.2       1 GLN        -0.3944
     36 CB          9.3830   -5.5090   22.1320 C.3       1 GLN         0.0045
     37 CG         10.3330   -6.6160   22.5700 C.3       1 GLN         0.0412
     38 CD          9.5970   -7.8420   23.0910 C.2       1 GLN         0.1737
     39 OE1         8.9130   -7.7800   24.1140 O.2       1 GLN        -0.3973
     40 NE2         9.7590   -8.9710   22.4050 N.am      1 GLN        -0.3009
     41 N           8.3300   -2.5530   21.9240 N.am      1 LEU        -0.2637
     42 CA          7.2840   -1.6310   21.4890 C.3       1 LEU         0.1312
     43 C           7.8460   -0.3840   20.8210 C.2       1 LEU         0.2039
     44 O           7.1540    0.2340   20.0020 O.2       1 LEU        -0.3944
     45 CB          6.3960   -1.2400   22.6710 C.3       1 LEU        -0.0101
     46 CG          5.6700   -2.3920   23.3740 C.3       1 LEU        -0.0425
     47 CD1         5.1970   -1.9410   24.7500 C.3       1 LEU        -0.0625
     48 CD2         4.5170   -2.9450   22.5480 C.3       1 LEU        -0.0625
     49 N           9.0650    0.0310   21.1760 N.am      1 ALA        -0.2640
     50 CA          9.6310    1.2180   20.5410 C.3       1 ALA         0.1282
     51 C           9.9040    0.9920   19.0560 C.2       1 ALA         0.2036
     52 O           9.6540    1.8830   18.2370 O.2       1 ALA        -0.3944
     53 CB         10.9020    1.6440   21.2700 C.3       1 ALA        -0.0244
     54 N          10.4230   -0.1810   18.6800 N.am      1 GLU        -0.2636
     55 CA         10.4930   -0.5110   17.2580 C.3       1 GLU         0.1325
     56 C           9.1090   -0.7210   16.6590 C.2       1 GLU         0.2041
     57 O           8.8850   -0.3800   15.4900 O.2       1 GLU        -0.3944
     58 CB         11.3990   -1.7160   17.0090 C.3       1 GLU        -0.0008
     59 CG         12.8780   -1.3410   16.8450 C.3       1 GLU         0.0044
     60 CD         13.6300   -1.1910   18.1520 C.2       1 GLU         0.0350
     61 OE1        13.8190   -0.0380   18.6020 O.co2     1 GLU        -0.5690
     62 OE2        14.0530   -2.2220   18.7170 O.co2     1 GLU        -0.5690
     63 N           8.1730   -1.2830   17.4310 N.am      1 TRP        -0.2627
     64 CA          6.8310   -1.5080   16.9030 C.3       1 TRP         0.1352
     65 C           6.1660   -0.2010   16.5010 C.2       1 TRP         0.2052
     66 O           5.4420   -0.1570   15.4990 O.2       1 TRP        -0.3942
     67 CB          5.9590   -2.2140   17.9390 C.3       1 TRP         0.0042
     68 CG          4.6190   -2.6480   17.3960 C.2       1 TRP        -0.0418
     69 CD1         4.3480   -3.7670   16.6580 C.2       1 TRP         0.0167
     70 CD2         3.3760   -1.9360   17.5140 C.ar      1 TRP        -0.0214
     71 NE1         3.0110   -3.8090   16.3340 N.pl3     1 TRP        -0.2890
     72 CE2         2.3920   -2.6980   16.8460 C.ar      1 TRP         0.0603
     73 CE3         2.9980   -0.7340   18.1290 C.ar      1 TRP        -0.0747
     74 CZ2         1.0560   -2.2970   16.7760 C.ar      1 TRP        -0.0443
     75 CZ3         1.6700   -0.3380   18.0570 C.ar      1 TRP        -0.0792
     76 CH2         0.7150   -1.1190   17.3830 C.ar      1 TRP        -0.0768
     77 N           6.4350    0.8800   17.2370 N.am      1 VAL        -0.2634
     78 CA          5.7680    2.1510   16.9860 C.3       1 VAL         0.1332
     79 C           6.2380    2.7970   15.6920 C.2       1 VAL         0.2037
     80 O           5.5820    3.7200   15.1940 O.2       1 VAL        -0.3944
     81 CB          5.9820    3.1120   18.1760 C.3       1 VAL        -0.0063
     82 CG1         7.3130    3.8420   18.0670 C.3       1 VAL        -0.0584
     83 CG2         4.8190    4.0690   18.3180 C.3       1 VAL        -0.0584
     84 N           7.3560    2.3390   15.1360 N.am      1 SER        -0.2672
     85 CA          7.8090    2.8080   13.8340 C.3       1 SER         0.1173
     86 C           8.2390    1.6220   12.9690 C.2       1 SER         0.0623
     87 O           7.5590    0.5930   12.9220 O.co2     1 SER        -0.5665
     88 CB          8.9550    3.8070   13.9850 C.3       1 SER         0.0789
     89 OG          9.4390    4.2190   12.7180 O.3       1 SER        -0.3910
     90 OXT         9.2750    1.6690   12.3000 O.co2     1 SER        -0.5665
     91 H1         12.7385   -4.6416   30.5383 H         1 GLU         0.2015
     92 H2         11.2047   -4.2721   30.0687 H         1 GLU         0.2015
     93 H3         12.4871   -3.5414   29.3400 H         1 GLU         0.2015
     94 H4         13.2431   -5.5745   28.4294 H         1 GLU         0.1099
     95 H5         12.1947   -7.6151   28.7828 H         1 GLU         0.0363
     96 H6         10.6449   -6.8551   29.2798 H         1 GLU         0.0363
     97 H7         11.3646   -7.7120   31.2690 H         1 GLU         0.0434
     98 H8         12.0540   -6.0552   31.3487 H         1 GLU         0.0434
     99 H9          9.7117   -5.0660   28.7356 H         1 ALA         0.1884
    100 H10         9.2407   -5.7727   25.9957 H         1 ALA         0.0797
    101 H11         6.8939   -5.0985   26.4740 H         1 ALA         0.0277
    102 H12         7.4277   -4.4098   28.0448 H         1 ALA         0.0277
    103 H13         7.5708   -6.1747   27.7429 H         1 ALA         0.0277
    104 H14         9.9269   -2.6447   27.5124 H         1 LEU         0.1883
    105 H15         8.5101   -1.0723   25.5791 H         1 LEU         0.0800
    106 H16        10.1375    0.7530   26.3423 H         1 LEU         0.0315
    107 H17        10.8233   -0.4846   27.4490 H         1 LEU         0.0315
    108 H18         8.3015   -0.7052   28.2389 H         1 LEU         0.0298
    109 H19         8.7141    1.0240   29.9413 H         1 LEU         0.0232
    110 H20        10.0517    1.6956   28.9481 H         1 LEU         0.0232
    111 H21        10.1932    0.0477   29.6487 H         1 LEU         0.0232
    112 H22         7.4812    0.7945   26.4323 H         1 LEU         0.0232
    113 H23         8.5125    2.1205   27.0686 H         1 LEU         0.0232
    114 H24         7.1503    1.4897   28.0552 H         1 LEU         0.0232
    115 H25        11.7996   -2.4718   25.5369 H         1 LYS         0.1883
    116 H26        12.6173   -0.9221   23.2426 H         1 LYS         0.0800
    117 H27        13.5527   -3.5099   24.5081 H         1 LYS         0.0312
    118 H28        14.3239   -1.8879   24.5404 H         1 LYS         0.0312
    119 H29        15.6780   -2.6611   22.9372 H         1 LYS         0.0269
    120 H30        14.2691   -2.5414   21.8293 H         1 LYS         0.0269
    121 H31        13.5931   -4.8692   22.7739 H         1 LYS         0.0317
    122 H32        15.2769   -4.9498   23.3943 H         1 LYS         0.0317
    123 H33        16.1431   -4.7009   21.1094 H         1 LYS         0.0813
    124 H34        14.4659   -4.5819   20.4773 H         1 LYS         0.0813
    125 H35        15.3317   -6.8201   20.3109 H         1 LYS         0.1994
    126 H36        14.0594   -6.7853   21.3546 H         1 LYS         0.1994
    127 H37        15.5963   -6.8943   21.9338 H         1 LYS         0.1994
    128 H38        10.7093   -3.9018   23.6203 H         1 GLN         0.1883
    129 H39        10.7520   -4.5250   20.7952 H         1 GLN         0.0801
    130 H40         8.7409   -5.9064   21.3322 H         1 GLN         0.0337
    131 H41         8.7622   -5.2298   22.9961 H         1 GLN         0.0337
    132 H42        10.9824   -6.2283   23.3688 H         1 GLN         0.0504
    133 H43        10.9490   -6.9138   21.7087 H         1 GLN         0.0504
    134 H44         9.2986   -9.8073   22.7026 H         1 GLN         0.1814
    135 H45        10.3411   -8.9829   21.5920 H         1 GLN         0.1814
    136 H46         8.5275   -2.6448   22.9000 H         1 LEU         0.1883
    137 H47         6.6609   -2.1558   20.7499 H         1 LEU         0.0800
    138 H48         5.6344   -0.5372   22.3022 H         1 LEU         0.0315
    139 H49         7.0295   -0.7365   23.4161 H         1 LEU         0.0315
    140 H50         6.3946   -3.2075   23.5151 H         1 LEU         0.0298
    141 H51         4.6769   -2.7717   25.2494 H         1 LEU         0.0232
    142 H52         4.5083   -1.0903   24.6404 H         1 LEU         0.0232
    143 H53         6.0641   -1.6354   25.3539 H         1 LEU         0.0232
    144 H54         4.8904   -3.2611   21.5628 H         1 LEU         0.0232
    145 H55         3.7524   -2.1651   22.4173 H         1 LEU         0.0232
    146 H56         4.0752   -3.8084   23.0669 H         1 LEU         0.0232
    147 H57         9.5852   -0.4665   21.8702 H         1 ALA         0.1883
    148 H58         8.8967    2.0324   20.6278 H         1 ALA         0.0797
    149 H59        11.3207    2.5381   20.7849 H         1 ALA         0.0277
    150 H60        11.6380    0.8274   21.2316 H         1 ALA         0.0277
    151 H61        10.6636    1.8737   22.3190 H         1 ALA         0.0277
    152 H62        10.7602   -0.8266   19.3652 H         1 GLU         0.1883
    153 H63        10.9443    0.3505   16.7441 H         1 GLU         0.0801
    154 H64        11.0633   -2.2213   16.0914 H         1 GLU         0.0330
    155 H65        11.3061   -2.4046   17.8618 H         1 GLU         0.0330
    156 H66        12.9334   -0.3851   16.3036 H         1 GLU         0.0433
    157 H67        13.3694   -2.1269   16.2527 H         1 GLU         0.0433
    158 H68         8.3923   -1.5490   18.3697 H         1 TRP         0.1884
    159 H69         6.9125   -2.1488   16.0127 H         1 TRP         0.0815
    160 H70         5.7885   -1.5252   18.7795 H         1 TRP         0.0397
    161 H71         6.4953   -3.1048   18.2979 H         1 TRP         0.0397
    162 H72         5.0834   -4.5162   16.3686 H         1 TRP         0.0795
    163 H73         2.5498   -4.5550   15.7939 H         1 TRP         0.2216
    164 H74         3.7286   -0.1262   18.6503 H         1 TRP         0.0540
    165 H75         0.3159   -2.8973   16.2594 H         1 TRP         0.0541
    166 H76         1.3639    0.5890   18.5283 H         1 TRP         0.0510
    167 H77        -0.3141   -0.7806   17.3433 H         1 TRP         0.0530
    168 H78         7.1071    0.8162   17.9747 H         1 VAL         0.1883
    169 H79         4.6898    1.9541   16.8926 H         1 VAL         0.0802
    170 H80         6.0180    2.5021   19.0907 H         1 VAL         0.0343
    171 H81         7.4330    4.5161   18.9279 H         1 VAL         0.0234
    172 H82         7.3346    4.4282   17.1365 H         1 VAL         0.0234
    173 H83         8.1334    3.1093   18.0579 H         1 VAL         0.0234
    174 H84         3.8816    3.4983   18.3931 H         1 VAL         0.0234
    175 H85         4.7773    4.7284   17.4386 H         1 VAL         0.0234
    176 H86         4.9523    4.6761   19.2256 H         1 VAL         0.0234
    177 H87         7.8989    1.6557   15.6241 H         1 SER         0.1876
    178 H88         6.9702    3.3165   13.3363 H         1 SER         0.0749
    179 H89         9.7738    3.3332   14.5463 H         1 SER         0.0599
    180 H90         8.5942    4.6879   14.5362 H         1 SER         0.0599
    181 H91         9.7551    3.4616   12.2394 H         1 SER         0.2096
@<TRIPOS>BOND
     1    1    2 1  
     2    2    3 1  
     3    2    5 1  
     4    3    4 2  
     5    3   10 am 
     6    5    6 1  
     7    6    7 1  
     8    7    8 ar 
     9    7    9 ar 
    10   10   11 1  
    11   11   12 1  
    12   11   14 1  
    13   12   13 2  
    14   12   15 am 
    15   15   16 1  
    16   16   17 1  
    17   16   19 1  
    18   17   18 2  
    19   17   23 am 
    20   19   20 1  
    21   20   21 1  
    22   20   22 1  
    23   23   24 1  
    24   24   25 1  
    25   24   27 1  
    26   25   26 2  
    27   25   32 am 
    28   27   28 1  
    29   28   29 1  
    30   29   30 1  
    31   30   31 1  
    32   32   33 1  
    33   33   34 1  
    34   33   36 1  
    35   34   35 2  
    36   34   41 am 
    37   36   37 1  
    38   37   38 1  
    39   38   39 2  
    40   38   40 am 
    41   41   42 1  
    42   42   43 1  
    43   42   45 1  
    44   43   44 2  
    45   43   49 am 
    46   45   46 1  
    47   46   47 1  
    48   46   48 1  
    49   49   50 1  
    50   50   51 1  
    51   50   53 1  
    52   51   52 2  
    53   51   54 am 
    54   54   55 1  
    55   55   56 1  
    56   55   58 1  
    57   56   57 2  
    58   56   63 am 
    59   58   59 1  
    60   59   60 1  
    61   60   61 ar 
    62   60   62 ar 
    63   63   64 1  
    64   64   65 1  
    65   64   67 1  
    66   65   66 2  
    67   65   77 am 
    68   67   68 1  
    69   68   69 2  
    70   68   70 1  
    71   69   71 1  
    72   70   72 ar 
    73   70   73 ar 
    74   71   72 1  
    75   72   74 ar 
    76   73   75 ar 
    77   74   76 ar 
    78   75   76 ar 
    79   77   78 1  
    80   78   79 1  
    81   78   81 1  
    82   79   80 2  
    83   79   84 am 
    84   81   82 1  
    85   81   83 1  
    86   84   85 1  
    87   85   86 1  
    88   85   88 1  
    89   86   87 ar 
    90   86   90 ar 
    91   88   89 1  
    92    1   91 1  
    93    1   92 1  
    94    1   93 1  
    95    2   94 1  
    96    5   95 1  
    97    5   96 1  
    98    6   97 1  
    99    6   98 1  
   100   10   99 1  
   101   11  100 1  
   102   14  101 1  
   103   14  102 1  
   104   14  103 1  
   105   15  104 1  
   106   16  105 1  
   107   19  106 1  
   108   19  107 1  
   109   20  108 1  
   110   21  109 1  
   111   21  110 1  
   112   21  111 1  
   113   22  112 1  
   114   22  113 1  
   115   22  114 1  
   116   23  115 1  
   117   24  116 1  
   118   27  117 1  
   119   27  118 1  
   120   28  119 1  
   121   28  120 1  
   122   29  121 1  
   123   29  122 1  
   124   30  123 1  
   125   30  124 1  
   126   31  125 1  
   127   31  126 1  
   128   31  127 1  
   129   32  128 1  
   130   33  129 1  
   131   36  130 1  
   132   36  131 1  
   133   37  132 1  
   134   37  133 1  
   135   40  134 1  
   136   40  135 1  
   137   41  136 1  
   138   42  137 1  
   139   45  138 1  
   140   45  139 1  
   141   46  140 1  
   142   47  141 1  
   143   47  142 1  
   144   47  143 1  
   145   48  144 1  
   146   48  145 1  
   147   48  146 1  
   148   49  147 1  
   149   50  148 1  
   150   53  149 1  
   151   53  150 1  
   152   53  151 1  
   153   54  152 1  
   154   55  153 1  
   155   58  154 1  
   156   58  155 1  
   157   59  156 1  
   158   59  157 1  
   159   63  158 1  
   160   64  159 1  
   161   67  160 1  
   162   67  161 1  
   163   69  162 1  
   164   71  163 1  
   165   73  164 1  
   166   74  165 1  
   167   75  166 1  
   168   76  167 1  
   169   77  168 1  
   170   78  169 1  
   171   81  170 1  
   172   82  171 1  
   173   82  172 1  
   174   82  173 1  
   175   83  174 1  
   176   83  175 1  
   177   83  176 1  
   178   84  177 1  
   179   85  178 1  
   180   88  179 1  
   181   88  180 1  
   182   89  181 1  
@<TRIPOS>SUBSTRUCTURE
     1 GLU         1

