5jyy_ligand
  -I-interpret- 

 57 57  0  0  0  0  0  0  0  0999 V2000
  375.1520  155.9900   62.6370 N   0  0  0  0  0
  377.9350  147.0360   67.0560 C   0  0  0  0  0
  375.6560  149.1920   65.4380 C   0  0  0  0  0
  376.7740  150.8280   63.9180 C   0  0  0  0  0
  373.8710  152.1390   60.4940 C   0  0  0  0  0
  378.0310  153.6720   62.4300 C   0  0  0  0  0
  376.5600  154.1130   62.4130 C   0  0  0  0  0
  376.4830  155.6390   62.3340 C   0  0  0  0  0
  377.4840  156.3120   63.3030 C   0  0  0  0  0
  378.5560  155.6200   63.7560 C   0  0  0  0  0
  378.6810  154.2930   63.4720 O   0  0  0  0  0
  378.1920  152.1830   62.6050 C   0  0  0  0  0
  379.6460  151.7510   62.5350 C   0  0  0  0  0
  379.7930  150.2760   62.7600 C   0  0  0  0  0
  379.2040  149.4680   61.7770 O   0  0  0  0  0
  377.7250  151.8440   63.8380 O   0  0  0  0  0
  380.1510  152.1260   61.3320 O   0  0  0  0  0
  374.1720  156.1160   61.6020 C   0  0  0  0  0
  372.8810  156.4010   62.0150 N   0  0  0  0  0
  374.4620  155.9480   60.3510 N   0  0  0  0  0
  377.5400  148.0800   66.2130 O   0  0  0  0  0
  376.3690  147.8740   65.4770 C   0  0  0  0  0
  376.5870  150.2620   65.2140 N   0  0  0  0  0
  376.1580  150.4530   62.9910 O   0  0  0  0  0
  375.8360  153.4370   61.4020 N   0  0  0  0  0
  374.0540  152.8460   62.6900 O   0  0  0  0  0
  374.5780  152.8280   61.6410 C   0  0  0  0  0
  379.6400  156.2930   64.5650 C   0  0  0  0  0
  380.6330  155.6510   64.8860 O   0  0  0  0  0
  379.5730  157.4680   64.8410 O   0  0  0  0  0
  374.8838  156.1564   63.6069 H   0  0  0  0  0
  377.1502  146.8451   67.7880 H   0  0  0  0  0
  378.1073  146.1375   66.4634 H   0  0  0  0  0
  378.8542  147.3147   67.5712 H   0  0  0  0  0
  375.1561  149.3522   66.3933 H   0  0  0  0  0
  374.9307  149.1780   64.6244 H   0  0  0  0  0
  373.7112  151.0903   60.7448 H   0  0  0  0  0
  372.9100  152.6224   60.3183 H   0  0  0  0  0
  374.4844  152.2097   59.5957 H   0  0  0  0  0
  378.4548  153.9507   61.4652 H   0  0  0  0  0
  376.0715  153.8260   63.3442 H   0  0  0  0  0
  376.7583  155.9883   61.3389 H   0  0  0  0  0
  377.3263  157.3426   63.6208 H   0  0  0  0  0
  377.6431  151.6923   61.8012 H   0  0  0  0  0
  380.2084  152.2390   63.3310 H   0  0  0  0  0
  379.2895  150.0481   63.6995 H   0  0  0  0  0
  380.8612  150.0597   62.7482 H   0  0  0  0  0
  379.3442  148.5442   61.9975 H   0  0  0  0  0
  381.0711  151.8583   61.2750 H   0  0  0  0  0
  372.1320  156.4831   61.3275 H   0  0  0  0  0
  372.6793  156.5288   63.0067 H   0  0  0  0  0
  373.7314  156.0248   59.6433 H   0  0  0  0  0
  376.5964  147.5225   64.4706 H   0  0  0  0  0
  375.7473  147.1065   65.9380 H   0  0  0  0  0
  377.1268  150.6256   65.9993 H   0  0  0  0  0
  376.2349  153.3859   60.4646 H   0  0  0  0  0
  380.5318  154.7412   64.5968 H   0  0  0  0  0
  8  1  1  0  0  0
  1 18  1  0  0  0
 21  2  1  0  0  0
  3 22  1  0  0  0
 23  3  1  0  0  0
 16  4  1  0  0  0
  4 23  1  0  0  0
  4 24  2  0  0  0
 27  5  1  0  0  0
  7  6  1  0  0  0
  6 11  1  0  0  0
  6 12  1  0  0  0
  7  8  1  0  0  0
 25  7  1  0  0  0
  8  9  1  0  0  0
  9 10  2  0  0  0
 11 10  1  0  0  0
 10 28  1  0  0  0
 12 13  1  0  0  0
 12 16  1  0  0  0
 13 14  1  0  0  0
 13 17  1  0  0  0
 14 15  1  0  0  0
 18 19  1  0  0  0
 18 20  2  0  0  0
 22 21  1  0  0  0
 25 27  1  0  0  0
 27 26  2  0  0  0
 28 29  1  0  0  0
 28 30  2  0  0  0
  1 31  1  0  0  0
  2 32  1  0  0  0
  2 33  1  0  0  0
  2 34  1  0  0  0
  3 35  1  0  0  0
  3 36  1  0  0  0
  5 37  1  0  0  0
  5 38  1  0  0  0
  5 39  1  0  0  0
  6 40  1  0  0  0
  7 41  1  0  0  0
  8 42  1  0  0  0
  9 43  1  0  0  0
 12 44  1  0  0  0
 13 45  1  0  0  0
 14 46  1  0  0  0
 14 47  1  0  0  0
 15 48  1  0  0  0
 17 49  1  0  0  0
 19 50  1  0  0  0
 19 51  1  0  0  0
 20 52  1  0  0  0
 22 53  1  0  0  0
 22 54  1  0  0  0
 23 55  1  0  0  0
 25 56  1  0  0  0
 29 57  1  0  0  0
M  END
$$$$
