13gs_ligand
  -I-interpret- 

 42 44  0  0  0  0  0  0  0  0999 V2000
    5.8670   -2.5540   31.8180 C   0  0  0  0  0
    7.1800   -2.7850   32.3140 C   0  0  0  0  0
    7.8020   -3.9490   31.8790 C   0  0  0  0  0
    7.1330   -4.8190   30.9940 C   0  0  0  0  0
    5.8130   -4.5360   30.5330 C   0  0  0  0  0
    5.2380   -3.4050   30.9670 N   0  0  0  0  0
    5.2110   -1.4210   32.1920 N   0  0  0  0  0
    5.8290    0.1150   32.4160 S   0  0  0  0  0
    7.0230   -0.0030   33.4960 O   0  0  0  0  0
    4.5660    0.8990   32.9650 O   0  0  0  0  0
    6.2720    0.8680   30.9180 C   0  0  0  0  0
    7.5860    0.7200   30.4370 C   0  0  0  0  0
    7.9780    1.3990   29.2670 C   0  0  0  0  0
    7.0420    2.2260   28.5850 C   0  0  0  0  0
    5.6770    2.3740   29.0760 C   0  0  0  0  0
    5.2940    1.6840   30.2540 C   0  0  0  0  0
    7.5330    2.8070   27.5840 N   0  0  0  0  0
    6.8870    3.6750   26.7290 N   0  0  0  0  0
    7.2760    4.3130   25.7040 C   0  0  0  0  0
    8.6210    4.2950   25.2270 C   0  0  0  0  0
    9.0530    5.0660   24.0980 C   0  0  0  0  0
    8.0250    5.9100   23.4420 C   0  0  0  0  0
    6.6870    5.9210   23.9130 C   0  0  0  0  0
    6.3150    5.1350   25.0330 C   0  0  0  0  0
   10.5100    4.9270   23.6970 C   0  0  0  0  0
    8.1980    6.7580   22.3650 O   0  0  0  0  0
   11.3020    4.1720   24.3260 O   0  0  0  0  0
   10.9540    5.5790   22.7260 O   0  0  0  0  0
    7.6697   -2.0895   32.9956 H   0  0  0  0  0
    8.8081   -4.1897   32.2224 H   0  0  0  0  0
    7.6343   -5.7257   30.6553 H   0  0  0  0  0
    5.2925   -5.2123   29.8549 H   0  0  0  0  0
    4.2097   -1.5235   32.3573 H   0  0  0  0  0
    8.2957    0.0842   30.9663 H   0  0  0  0  0
    8.9935    1.2916   28.8857 H   0  0  0  0  0
    4.9629    3.0046   28.5463 H   0  0  0  0  0
    4.2809    1.7708   30.6466 H   0  0  0  0  0
    9.3498    3.6693   25.7422 H   0  0  0  0  0
    5.9408    6.5370   23.4112 H   0  0  0  0  0
    5.2845    5.1569   25.3875 H   0  0  0  0  0
    7.3612    7.1775   22.1518 H   0  0  0  0  0
   10.8293    3.7378   25.0398 H   0  0  0  0  0
  1  2  4  0  0  0
  1  6  4  0  0  0
  1  7  1  0  0  0
  2  3  4  0  0  0
  3  4  4  0  0  0
  4  5  4  0  0  0
  5  6  4  0  0  0
  7  8  1  0  0  0
  8  9  2  0  0  0
  8 10  2  0  0  0
  8 11  1  0  0  0
 11 12  4  0  0  0
 11 16  4  0  0  0
 12 13  4  0  0  0
 13 14  4  0  0  0
 14 15  4  0  0  0
 14 17  1  0  0  0
 15 16  4  0  0  0
 17 18  2  0  0  0
 18 19  1  0  0  0
 19 20  4  0  0  0
 19 24  4  0  0  0
 20 21  4  0  0  0
 21 22  4  0  0  0
 21 25  1  0  0  0
 22 23  4  0  0  0
 22 26  1  0  0  0
 23 24  4  0  0  0
 25 27  1  0  0  0
 25 28  2  0  0  0
  2 29  1  0  0  0
  3 30  1  0  0  0
  4 31  1  0  0  0
  5 32  1  0  0  0
  7 33  1  0  0  0
 12 34  1  0  0  0
 13 35  1  0  0  0
 15 36  1  0  0  0
 16 37  1  0  0  0
 20 38  1  0  0  0
 23 39  1  0  0  0
 24 40  1  0  0  0
 26 41  1  0  0  0
 27 42  1  0  0  0
M  END
$$$$
