5m57_ligand
  -I-interpret- 

 49 52  0  0  0  0  0  0  0  0999 V2000
   22.3760   77.1390   13.3040 C   0  0  0  0  0
   20.3190   78.4910    9.4960 C   0  0  0  0  0
   25.0670   80.0370   12.1830 C   0  0  0  0  0
   26.3080   80.2340   11.3540 C   0  0  0  0  0
   25.9440   80.1050    9.8790 C   0  0  0  0  0
   27.1730   80.3450    8.9500 C   0  0  0  0  0
   27.8520   81.6780    9.2710 C   0  0  0  0  0
   28.1540   81.8820   10.7760 C   0  0  0  0  0
   26.9210   81.6270   11.6570 C   0  0  0  0  0
   25.0270   75.5740   17.2480 C   0  0  0  0  0
   26.2330   75.8590   16.5700 C   0  0  0  0  0
   26.2250   76.2950   15.2620 C   0  0  0  0  0
   25.0290   76.4490   14.6330 C   0  0  0  0  0
   28.8970   76.6870   16.6850 N   0  0  0  0  0
   23.3380   78.0270   12.8880 N   0  0  0  0  0
   23.1650   78.6880   11.7640 C   0  0  0  0  0
   24.0880   79.5830   11.2810 O   0  0  0  0  0
   21.9690   78.5050   10.9620 C   0  0  0  0  0
   21.4590   79.0310    9.7280 N   0  0  0  0  0
   20.0290   77.5970   10.5410 N   0  0  0  0  0
   21.0420   77.6170   11.4270 C   0  0  0  0  0
   21.2790   76.9490   12.6060 N   0  0  0  0  0
   22.5220   76.3660   14.5580 N   0  0  0  0  0
   23.8180   76.1820   15.2830 C   0  0  0  0  0
   23.8340   75.7320   16.6060 C   0  0  0  0  0
   27.7800   75.6540   17.3450 S   0  0  0  0  0
   28.2100   74.3020   17.1920 O   0  0  0  0  0
   27.6510   75.7950   18.7630 O   0  0  0  0  0
   19.6826   78.6915    8.6341 H   0  0  0  0  0
   24.7621   80.9603   12.6755 H   0  0  0  0  0
   25.2320   79.3229   12.9898 H   0  0  0  0  0
   27.0509   79.4754   11.6002 H   0  0  0  0  0
   25.1900   80.8572    9.6473 H   0  0  0  0  0
   25.5787   79.0928    9.7057 H   0  0  0  0  0
   26.8299   80.3678    7.9156 H   0  0  0  0  0
   27.8915   79.5404    9.1062 H   0  0  0  0  0
   27.1689   82.4712    8.9670 H   0  0  0  0  0
   28.8062   81.6909    8.7443 H   0  0  0  0  0
   28.4660   82.9162   10.9215 H   0  0  0  0  0
   28.9292   81.1723   11.0650 H   0  0  0  0  0
   27.2236   81.6584   12.7037 H   0  0  0  0  0
   26.1744   82.3932   11.4480 H   0  0  0  0  0
   25.0497   75.2287   18.2816 H   0  0  0  0  0
   27.1584   76.5119   14.7425 H   0  0  0  0  0
   25.0129   76.7886   13.5974 H   0  0  0  0  0
   29.7424   76.3151   16.2521 H   0  0  0  0  0
   28.7386   77.6943   16.7119 H   0  0  0  0  0
   21.6874   75.9319   14.9523 H   0  0  0  0  0
   22.8997   75.5089   17.1212 H   0  0  0  0  0
  1 15  4  0  0  0
  1 22  4  0  0  0
 23  1  1  0  0  0
  2 19  4  0  0  0
 20  2  4  0  0  0
  3  4  1  0  0  0
 17  3  1  0  0  0
  4  5  1  0  0  0
  4  9  1  0  0  0
  5  6  1  0  0  0
  6  7  1  0  0  0
  8  7  1  0  0  0
  9  8  1  0  0  0
 11 10  4  0  0  0
 10 25  4  0  0  0
 12 11  4  0  0  0
 11 26  1  0  0  0
 13 12  4  0  0  0
 24 13  4  0  0  0
 26 14  1  0  0  0
 15 16  4  0  0  0
 16 17  1  0  0  0
 16 18  4  0  0  0
 18 19  4  0  0  0
 21 18  4  0  0  0
 21 20  4  0  0  0
 22 21  4  0  0  0
 23 24  1  0  0  0
 24 25  4  0  0  0
 26 27  2  0  0  0
 26 28  2  0  0  0
  2 29  1  0  0  0
  3 30  1  0  0  0
  3 31  1  0  0  0
  4 32  1  0  0  0
  5 33  1  0  0  0
  5 34  1  0  0  0
  6 35  1  0  0  0
  6 36  1  0  0  0
  7 37  1  0  0  0
  7 38  1  0  0  0
  8 39  1  0  0  0
  8 40  1  0  0  0
  9 41  1  0  0  0
  9 42  1  0  0  0
 10 43  1  0  0  0
 12 44  1  0  0  0
 13 45  1  0  0  0
 14 46  1  0  0  0
 14 47  1  0  0  0
 23 48  1  0  0  0
 25 49  1  0  0  0
M  END
$$$$
