2doo_ligand
  -I-interpret- 

 54 55  0  0  0  0  0  0  0  0999 V2000
   29.6070   45.8040   33.4710 C   0  0  0  0  0
   28.8450   44.6830   32.9420 C   0  0  0  0  0
   30.2050   46.9530   32.6940 C   0  0  0  0  0
   30.1240   47.1320   31.1460 N   0  0  0  0  0
   28.9900   47.7580   30.8110 C   0  0  0  0  0
   30.3060   46.1350   30.4870 C   0  0  0  0  0
   30.9150   47.9550   33.4300 C   0  0  0  0  0
   31.0680   47.9150   34.8450 C   0  0  0  0  0
   30.5070   46.8380   35.5810 C   0  0  0  0  0
   29.7670   45.7720   34.9400 C   0  0  0  0  0
   29.2020   44.6540   35.7550 C   0  0  0  0  0
   28.4680   43.6060   35.1070 C   0  0  0  0  0
   28.3030   43.6310   33.7190 C   0  0  0  0  0
   29.4140   44.6000   37.5190 S   0  0  0  0  0
   30.8320   44.4080   37.9770 N   0  0  0  0  0
   31.8760   43.8390   37.0940 C   0  0  0  0  0
   32.5270   42.5660   37.7580 C   0  0  0  0  0
   33.0550   42.9310   39.2220 C   0  0  0  0  0
   33.7680   41.7850   39.9060 C   0  0  0  0  0
   33.9520   42.0030   41.3800 N   0  0  0  0  0
   33.1670   41.1300   42.3080 C   0  0  0  0  0
   32.4080   40.2780   41.8450 O   0  0  0  0  0
   33.3510   41.3770   43.8440 C   0  0  0  0  0
   32.1730   40.9190   44.6920 C   0  0  0  0  0
   30.6760   41.9520   44.8060 S   0  0  0  0  0
   28.5580   43.5070   38.1010 O   0  0  0  0  0
   29.0090   45.9080   38.0760 O   0  0  0  0  0
   28.6788   44.6507   31.8652 H   0  0  0  0  0
   29.0330   48.0480   29.7612 H   0  0  0  0  0
   28.1457   47.0872   30.9697 H   0  0  0  0  0
   28.8707   48.6471   31.4302 H   0  0  0  0  0
   29.4779   45.4431   30.6409 H   0  0  0  0  0
   30.3653   46.4039   29.4324 H   0  0  0  0  0
   31.2383   45.6622   30.7957 H   0  0  0  0  0
   31.3586   48.7863   32.8821 H   0  0  0  0  0
   31.6125   48.7063   35.3602 H   0  0  0  0  0
   30.6378   46.8133   36.6628 H   0  0  0  0  0
   28.0405   42.7933   35.6943 H   0  0  0  0  0
   27.7498   42.8300   33.2286 H   0  0  0  0  0
   31.0840   44.6785   38.9276 H   0  0  0  0  0
   32.6502   44.5890   36.9321 H   0  0  0  0  0
   31.4201   43.5504   36.1469 H   0  0  0  0  0
   33.3636   42.2279   37.1465 H   0  0  0  0  0
   31.7805   41.7750   37.8303 H   0  0  0  0  0
   32.1875   43.1881   39.8298 H   0  0  0  0  0
   33.7689   43.7483   39.1198 H   0  0  0  0  0
   34.7576   41.6955   39.4580 H   0  0  0  0  0
   33.1584   40.8907   39.7766 H   0  0  0  0  0
   34.5870   42.7180   41.7349 H   0  0  0  0  0
   33.4533   42.4526   43.9879 H   0  0  0  0  0
   34.2204   40.8012   44.1615 H   0  0  0  0  0
   32.5637   40.8922   45.7092 H   0  0  0  0  0
   31.8341   40.0000   44.2139 H   0  0  0  0  0
   29.7870   41.3559   45.5954 H   0  0  0  0  0
  1  2  4  0  0  0
  1  3  4  0  0  0
  1 10  4  0  0  0
  2 13  4  0  0  0
  3  4  1  0  0  0
  3  7  4  0  0  0
  4  5  1  0  0  0
  4  6  1  0  0  0
  7  8  4  0  0  0
  8  9  4  0  0  0
  9 10  4  0  0  0
 10 11  4  0  0  0
 11 12  4  0  0  0
 11 14  1  0  0  0
 12 13  4  0  0  0
 14 15  1  0  0  0
 14 26  2  0  0  0
 14 27  2  0  0  0
 15 16  1  0  0  0
 16 17  1  0  0  0
 17 18  1  0  0  0
 18 19  1  0  0  0
 19 20  1  0  0  0
 20 21  1  0  0  0
 21 22  2  0  0  0
 21 23  1  0  0  0
 23 24  1  0  0  0
 24 25  1  0  0  0
  2 28  1  0  0  0
  5 29  1  0  0  0
  5 30  1  0  0  0
  5 31  1  0  0  0
  6 32  1  0  0  0
  6 33  1  0  0  0
  6 34  1  0  0  0
  7 35  1  0  0  0
  8 36  1  0  0  0
  9 37  1  0  0  0
 12 38  1  0  0  0
 13 39  1  0  0  0
 15 40  1  0  0  0
 16 41  1  0  0  0
 16 42  1  0  0  0
 17 43  1  0  0  0
 17 44  1  0  0  0
 18 45  1  0  0  0
 18 46  1  0  0  0
 19 47  1  0  0  0
 19 48  1  0  0  0
 20 49  1  0  0  0
 23 50  1  0  0  0
 23 51  1  0  0  0
 24 52  1  0  0  0
 24 53  1  0  0  0
 25 54  1  0  0  0
M  END
$$$$
