3wqw_ligand
  -I-interpret- 

116120  0  0  0  0  0  0  0  0999 V2000
  -38.9660   22.0520    3.5140 C   0  0  0  0  0
  -37.7730   21.8970    2.5430 C   0  0  0  0  0
  -36.7490   22.6040    3.4850 C   0  0  0  0  0
  -37.3230   24.0230    3.8580 C   0  0  0  0  0
  -38.7890   24.0320    4.3890 C   0  0  0  0  0
  -39.3980   25.4210    4.7280 C   0  0  0  0  0
  -37.5340   20.4760    2.4060 N   0  3  0  0  0
  -39.7710   21.0120    3.7990 O   0  0  0  0  0
  -35.4730   22.6040    2.8570 O   0  0  0  0  0
  -36.5620   24.6490    4.8980 O   0  0  0  0  0
  -39.6320   23.3140    3.4730 O   0  0  0  0  0
  -39.3160   26.1200    3.5260 O   0  0  0  0  0
  -35.3170   25.2290    4.5580 C   0  0  0  0  0
  -34.9800   26.2450    5.6710 C   0  0  0  0  0
  -33.6180   26.8910    5.4450 C   0  0  0  0  0
  -32.6000   25.7770    5.1910 C   0  0  0  0  0
  -33.0690   24.8250    4.0850 C   0  0  0  0  0
  -32.0570   23.6610    3.8690 C   0  0  0  0  0
  -35.9950   27.2950    5.7900 N   0  3  0  0  0
  -33.3360   27.6850    6.6330 O   0  0  0  0  0
  -31.3470   26.3430    4.7630 O   0  0  0  0  0
  -34.2990   24.2370    4.4470 O   0  0  0  0  0
  -32.5190   22.9810    2.7070 O   0  0  0  0  0
  -30.3580   26.5520    5.8140 C   0  0  0  0  0
  -28.9930   26.8000    5.1890 C   0  0  0  0  0
  -27.8770   27.0110    6.2010 C   0  0  0  0  0
  -28.3120   28.1810    7.0430 C   0  0  0  0  0
  -29.7420   27.9540    7.5370 C   0  0  0  0  0
  -30.1550   29.0940    8.4900 C   0  0  0  0  0
  -28.5760   25.9560    4.0780 N   0  3  0  0  0
  -26.6850   27.3320    5.4890 O   0  0  0  0  0
  -27.4540   28.0810    8.1480 O   0  0  0  0  0
  -30.6200   27.8140    6.4250 O   0  0  0  0  0
  -30.4440   30.1210    7.5990 O   0  0  0  0  0
  -26.8490   29.3320    8.6060 C   0  0  0  0  0
  -25.8460   28.9600    9.7080 C   0  0  0  0  0
  -25.4420   30.1940   10.5470 C   0  0  0  0  0
  -25.1980   31.4170    9.6020 C   0  0  0  0  0
  -25.7920   31.3790    8.1590 C   0  0  0  0  0
  -24.8000   32.0130    7.1650 C   0  0  0  0  0
  -26.3670   27.8270   10.4860 N   0  3  0  0  0
  -24.3220   29.8950   11.4290 O   0  0  0  0  0
  -25.6230   32.6410   10.2180 O   0  0  0  0  0
  -26.2200   30.1200    7.6330 O   0  0  0  0  0
  -23.5030   31.4570    7.2650 O   0  0  0  0  0
  -24.7630   32.9520   11.3520 C   0  0  0  0  0
  -24.1270   34.3690   11.2830 C   0  0  0  0  0
  -23.4030   34.7700   12.6250 C   0  0  0  0  0
  -23.9490   34.1670   13.9420 C   0  0  0  0  0
  -24.1860   32.7000   13.5940 C   0  0  0  0  0
  -24.1850   31.7110   14.7640 C   0  0  0  0  0
  -23.2270   34.4600   10.1190 N   0  3  0  0  0
  -23.1920   36.1830   12.7900 O   0  0  0  0  0
  -23.0140   34.2990   15.0030 O   0  0  0  0  0
  -25.2740   32.6280   12.6610 O   0  0  0  0  0
  -22.8980   31.1150   14.7590 O   0  0  0  0  0
  -37.8174   22.2810    1.5239 H   0  0  0  0  0
  -36.6049   22.0806    4.4302 H   0  0  0  0  0
  -37.2716   24.5491    2.9048 H   0  0  0  0  0
  -38.7402   23.5364    5.3586 H   0  0  0  0  0
  -38.8664   25.9217    5.5372 H   0  0  0  0  0
  -40.4209   25.3475    5.0972 H   0  0  0  0  0
  -38.2327   20.0736    1.7813 H   0  0  0  0  0
  -36.6026   20.3249    2.0187 H   0  0  0  0  0
  -37.5989   20.0317    3.3218 H   0  0  0  0  0
  -35.2097   21.7000    2.6698 H   0  0  0  0  0
  -39.6755   27.0022    3.6450 H   0  0  0  0  0
  -35.3745   25.7212    3.5872 H   0  0  0  0  0
  -34.9594   25.6758    6.6004 H   0  0  0  0  0
  -33.5803   27.5503    4.5778 H   0  0  0  0  0
  -32.4892   25.2286    6.1265 H   0  0  0  0  0
  -33.1600   25.4150    3.1730 H   0  0  0  0  0
  -32.0131   22.9987    4.7336 H   0  0  0  0  0
  -31.0389   24.0294    3.7431 H   0  0  0  0  0
  -35.7300   27.9395    6.5348 H   0  0  0  0  0
  -36.0626   27.8024    4.9077 H   0  0  0  0  0
  -36.8964   26.8715    6.0100 H   0  0  0  0  0
  -32.4824   28.1132    6.5351 H   0  0  0  0  0
  -31.9344   22.2441    2.5152 H   0  0  0  0  0
  -30.3914   25.6919    6.4827 H   0  0  0  0  0
  -29.1868   27.7523    4.6953 H   0  0  0  0  0
  -27.6876   26.1322    6.8173 H   0  0  0  0  0
  -28.2794   29.1343    6.5155 H   0  0  0  0  0
  -29.8010   27.0272    8.1077 H   0  0  0  0  0
  -29.3830   29.3538    9.2143 H   0  0  0  0  0
  -30.9923   28.8346    9.1379 H   0  0  0  0  0
  -27.6468   26.2395    3.7673 H   0  0  0  0  0
  -28.5518   24.9828    4.3824 H   0  0  0  0  0
  -29.2384   26.0566    3.3089 H   0  0  0  0  0
  -25.9681   27.4689    6.1127 H   0  0  0  0  0
  -30.7185   30.8999    8.0884 H   0  0  0  0  0
  -27.6658   29.9665    8.9500 H   0  0  0  0  0
  -24.9100   28.6218    9.2633 H   0  0  0  0  0
  -26.2597   30.4674   11.2139 H   0  0  0  0  0
  -24.1189   31.3558    9.4609 H   0  0  0  0  0
  -26.7162   31.9457    8.2718 H   0  0  0  0  0
  -24.7285   33.0764    7.3933 H   0  0  0  0  0
  -25.1690   31.8265    6.1565 H   0  0  0  0  0
  -25.6990   27.5822   11.2169 H   0  0  0  0  0
  -27.2569   28.0882   10.9106 H   0  0  0  0  0
  -26.5054   27.0271    9.8685 H   0  0  0  0  0
  -24.0961   30.6792   11.9346 H   0  0  0  0  0
  -22.9237   31.8825    6.6287 H   0  0  0  0  0
  -23.9519   32.2353   11.2234 H   0  0  0  0  0
  -24.9310   35.0936   11.1541 H   0  0  0  0  0
  -22.4428   34.2812   12.4599 H   0  0  0  0  0
  -24.8501   34.6711   14.2914 H   0  0  0  0  0
  -23.3007   32.3098   13.0919 H   0  0  0  0  0
  -24.9706   30.9634   14.6542 H   0  0  0  0  0
  -24.3878   32.2130   15.7100 H   0  0  0  0  0
  -22.8146   35.3922   10.0817 H   0  0  0  0  0
  -22.4875   33.7630   10.2072 H   0  0  0  0  0
  -23.7584   34.2876    9.2656 H   0  0  0  0  0
  -22.7488   36.3437   13.6263 H   0  0  0  0  0
  -23.3827   33.9162   15.8024 H   0  0  0  0  0
  -22.8377   30.4804   15.4768 H   0  0  0  0  0
  1  2  1  0  0  0
  1  8  2  0  0  0
  1 11  1  0  0  0
  2  3  1  0  0  0
  2  7  1  0  0  0
  3  4  1  0  0  0
  3  9  1  0  0  0
  4  5  1  0  0  0
  4 10  1  0  0  0
  5  6  1  0  0  0
  5 11  1  0  0  0
  6 12  1  0  0  0
 10 13  1  0  0  0
 13 14  1  0  0  0
 13 22  1  0  0  0
 14 15  1  0  0  0
 14 19  1  0  0  0
 15 16  1  0  0  0
 15 20  1  0  0  0
 16 17  1  0  0  0
 16 21  1  0  0  0
 17 18  1  0  0  0
 17 22  1  0  0  0
 18 23  1  0  0  0
 21 24  1  0  0  0
 24 25  1  0  0  0
 24 33  1  0  0  0
 25 26  1  0  0  0
 25 30  1  0  0  0
 26 27  1  0  0  0
 26 31  1  0  0  0
 27 28  1  0  0  0
 27 32  1  0  0  0
 28 29  1  0  0  0
 28 33  1  0  0  0
 29 34  1  0  0  0
 32 35  1  0  0  0
 35 36  1  0  0  0
 35 44  1  0  0  0
 36 37  1  0  0  0
 36 41  1  0  0  0
 37 38  1  0  0  0
 37 42  1  0  0  0
 38 39  1  0  0  0
 38 43  1  0  0  0
 39 40  1  0  0  0
 39 44  1  0  0  0
 40 45  1  0  0  0
 43 46  1  0  0  0
 46 47  1  0  0  0
 46 55  1  0  0  0
 47 48  1  0  0  0
 47 52  1  0  0  0
 48 49  1  0  0  0
 48 53  1  0  0  0
 49 50  1  0  0  0
 49 54  1  0  0  0
 50 51  1  0  0  0
 50 55  1  0  0  0
 51 56  1  0  0  0
  2 57  1  0  0  0
  3 58  1  0  0  0
  4 59  1  0  0  0
  5 60  1  0  0  0
  6 61  1  0  0  0
  6 62  1  0  0  0
  7 63  1  0  0  0
  7 64  1  0  0  0
  7 65  1  0  0  0
  9 66  1  0  0  0
 12 67  1  0  0  0
 13 68  1  0  0  0
 14 69  1  0  0  0
 15 70  1  0  0  0
 16 71  1  0  0  0
 17 72  1  0  0  0
 18 73  1  0  0  0
 18 74  1  0  0  0
 19 75  1  0  0  0
 19 76  1  0  0  0
 19 77  1  0  0  0
 20 78  1  0  0  0
 23 79  1  0  0  0
 24 80  1  0  0  0
 25 81  1  0  0  0
 26 82  1  0  0  0
 27 83  1  0  0  0
 28 84  1  0  0  0
 29 85  1  0  0  0
 29 86  1  0  0  0
 30 87  1  0  0  0
 30 88  1  0  0  0
 30 89  1  0  0  0
 31 90  1  0  0  0
 34 91  1  0  0  0
 35 92  1  0  0  0
 36 93  1  0  0  0
 37 94  1  0  0  0
 38 95  1  0  0  0
 39 96  1  0  0  0
 40 97  1  0  0  0
 40 98  1  0  0  0
 41 99  1  0  0  0
 41100  1  0  0  0
 41101  1  0  0  0
 42102  1  0  0  0
 45103  1  0  0  0
 46104  1  0  0  0
 47105  1  0  0  0
 48106  1  0  0  0
 49107  1  0  0  0
 50108  1  0  0  0
 51109  1  0  0  0
 51110  1  0  0  0
 52111  1  0  0  0
 52112  1  0  0  0
 52113  1  0  0  0
 53114  1  0  0  0
 54115  1  0  0  0
 56116  1  0  0  0
M  END
$$$$
