4tv3_ligand
  -I-interpret- 

 58 61  0  0  0  0  0  0  0  0999 V2000
  -16.2770    6.7940   26.9430 C   0  0  0  0  0
  -15.8980    5.6440   26.2850 C   0  0  0  0  0
  -14.8680    8.0310   25.4880 C   0  0  0  0  0
  -15.7640    8.0270   26.5540 C   0  0  0  0  0
  -15.5460   11.4460   28.1800 C   0  0  0  0  0
  -14.6170   12.4730   28.4330 C   0  0  0  0  0
  -16.8820   11.6490   28.6500 C   0  0  0  0  0
  -14.9940    5.7720   25.2350 C   0  0  0  0  0
  -16.2930   13.6830   29.4990 C   0  0  0  0  0
  -15.2730   10.2240   27.5000 C   0  0  0  0  0
  -16.1780    9.2630   27.2740 C   0  0  0  0  0
  -17.5640    9.4360   27.7420 C   0  0  0  0  0
  -20.2250   11.3090   27.8610 C   0  0  0  0  0
  -19.7200    9.9690   29.9710 C   0  0  0  0  0
  -21.5730   11.7180   28.4750 C   0  0  0  0  0
  -21.0600   10.4170   30.5610 C   0  0  0  0  0
  -19.2040   10.9950   28.9580 C   0  0  0  0  0
  -22.0770   10.6890   29.4710 C   0  0  0  0  0
  -13.1800   12.4220   28.0090 C   0  0  0  0  0
  -13.7380    4.6690   23.5470 C   0  0  0  0  0
  -25.0370    9.6250   29.0890 C   0  0  0  0  0
  -24.2870   10.0920   30.3110 C   0  0  0  0  0
  -14.4790    6.9250   24.8280 N   0  0  0  0  0
  -15.0090   13.5760   29.0900 N   0  0  0  0  0
  -17.2600   12.7570   29.3050 N   0  0  0  0  0
  -17.8470   10.6720   28.4320 N   0  0  0  0  0
  -16.6370   14.8000   30.1510 N   0  0  0  0  0
  -18.4420    8.5960   27.5670 O   0  0  0  0  0
  -25.4990   10.7130   28.2960 O   0  0  0  0  0
  -14.6590    4.6150   24.6310 O   0  0  0  0  0
  -23.3190   11.1150   30.0480 O   0  0  0  0  0
  -16.9821    6.7371   27.7722 H   0  0  0  0  0
  -16.2918    4.6702   26.5763 H   0  0  0  0  0
  -14.4567    8.9886   25.1688 H   0  0  0  0  0
  -14.2577   10.0600   27.1389 H   0  0  0  0  0
  -19.8490   12.1334   27.2551 H   0  0  0  0  0
  -20.3716   10.4180   27.2505 H   0  0  0  0  0
  -19.8598    9.0138   29.4648 H   0  0  0  0  0
  -18.9936    9.8750   30.7782 H   0  0  0  0  0
  -22.3037   11.8014   27.6705 H   0  0  0  0  0
  -21.4366   12.6635   28.9999 H   0  0  0  0  0
  -20.9012   11.3361   31.1251 H   0  0  0  0  0
  -21.4412    9.6212   31.2009 H   0  0  0  0  0
  -19.0765   11.9240   29.5138 H   0  0  0  0  0
  -22.2374    9.7586   28.9263 H   0  0  0  0  0
  -12.6963   11.5617   28.4716 H   0  0  0  0  0
  -13.1256   12.3312   26.9242 H   0  0  0  0  0
  -12.6769   13.3362   28.3240 H   0  0  0  0  0
  -14.1482    5.2946   22.7542 H   0  0  0  0  0
  -12.7950    5.0915   23.8938 H   0  0  0  0  0
  -13.5681    3.6621   23.1658 H   0  0  0  0  0
  -25.9040    9.0534   29.4201 H   0  0  0  0  0
  -24.3583    9.0259   28.4819 H   0  0  0  0  0
  -23.7474    9.2315   30.7065 H   0  0  0  0  0
  -25.0209   10.5118   30.9989 H   0  0  0  0  0
  -15.9413   15.5265   30.3204 H   0  0  0  0  0
  -17.5949   14.9249   30.4786 H   0  0  0  0  0
  -25.9692   10.3731   27.5312 H   0  0  0  0  0
  1  2  4  0  0  0
  4  1  4  0  0  0
  2  8  4  0  0  0
  4  3  4  0  0  0
  3 23  4  0  0  0
 11  4  1  0  0  0
  5  6  4  0  0  0
  7  5  4  0  0  0
  5 10  1  0  0  0
  6 19  1  0  0  0
  6 24  4  0  0  0
  7 25  4  0  0  0
 26  7  1  0  0  0
 23  8  4  0  0  0
  8 30  1  0  0  0
  9 24  4  0  0  0
 25  9  4  0  0  0
  9 27  1  0  0  0
 11 10  2  0  0  0
 12 11  1  0  0  0
 26 12  1  0  0  0
 12 28  2  0  0  0
 15 13  1  0  0  0
 13 17  1  0  0  0
 16 14  1  0  0  0
 14 17  1  0  0  0
 18 15  1  0  0  0
 18 16  1  0  0  0
 17 26  1  0  0  0
 31 18  1  0  0  0
 30 20  1  0  0  0
 22 21  1  0  0  0
 21 29  1  0  0  0
 22 31  1  0  0  0
  1 32  1  0  0  0
  2 33  1  0  0  0
  3 34  1  0  0  0
 10 35  1  0  0  0
 13 36  1  0  0  0
 13 37  1  0  0  0
 14 38  1  0  0  0
 14 39  1  0  0  0
 15 40  1  0  0  0
 15 41  1  0  0  0
 16 42  1  0  0  0
 16 43  1  0  0  0
 17 44  1  0  0  0
 18 45  1  0  0  0
 19 46  1  0  0  0
 19 47  1  0  0  0
 19 48  1  0  0  0
 20 49  1  0  0  0
 20 50  1  0  0  0
 20 51  1  0  0  0
 21 52  1  0  0  0
 21 53  1  0  0  0
 22 54  1  0  0  0
 22 55  1  0  0  0
 27 56  1  0  0  0
 27 57  1  0  0  0
 29 58  1  0  0  0
M  END
$$$$
