### 
### Created by X-TOOL on Mon Sep 10 21:13:10 2018
### 

@<TRIPOS>MOLECULE
3uec_ligand
   76    75     1     0     0
SMALL
GAST_HUCK


@<TRIPOS>ATOM
      1 N         -12.5250  -10.7760  -25.4330 N.4       1 ALA         0.2377
      2 CA        -13.1820  -12.1080  -25.4670 C.3       1 ALA         0.0621
      3 C         -14.2120  -12.1100  -26.5930 C.2       1 ALA         0.2264
      4 O         -14.5760  -11.0380  -27.1030 O.2       1 ALA        -0.3907
      5 CB        -13.8450  -12.4350  -24.1090 C.3       1 ALA        -0.0040
      6 N         -14.6820  -13.3130  -26.9410 N.am      1 ARG        -0.2610
      7 CA        -15.6210  -13.5310  -28.0530 C.3       1 ARG         0.1312
      8 C         -16.6520  -14.6220  -27.6890 C.2       1 ARG         0.2040
      9 O         -16.3630  -15.5030  -26.8270 O.2       1 ARG        -0.3944
     10 CB        -14.8630  -14.0120  -29.2980 C.3       1 ARG        -0.0092
     11 CG        -14.1620  -15.3590  -29.1070 C.3       1 ARG        -0.0156
     12 CD        -13.2170  -15.7240  -30.2890 C.3       1 ARG         0.0627
     13 NE        -12.1580  -16.6390  -29.8510 N.pl3     1 ARG        -0.2723
     14 CZ        -12.2830  -17.9640  -29.7170 C.cat     1 ARG         0.2882
     15 NH1       -11.2430  -18.6730  -29.2880 N.pl3     1 ARG        -0.2849
     16 NH2       -13.4270  -18.5940  -30.0110 N.pl3     1 ARG        -0.2849
     17 N         -17.8180  -14.5610  -28.3740 N.am      1 TPO        -0.2611
     18 CA        -18.8720  -15.5510  -28.0090 C.3       1 TPO         0.1611
     19 CB        -20.0770  -15.2710  -28.8830 C.3       1 TPO         0.1262
     20 CG2       -21.2050  -16.2660  -28.6100 C.3       1 TPO        -0.0298
     21 OG1       -20.3940  -13.9270  -28.6360 O.3       1 TPO        -0.2685
     22 P         -20.9720  -12.9560  -29.6560 P.3       1 TPO         0.2014
     23 O1P       -20.1550  -12.9520  -30.9140 O.co2     1 TPO        -0.5537
     24 O2P       -22.5180  -13.3760  -29.7480 O.co2     1 TPO        -0.5537
     25 O3P       -20.9960  -11.4220  -29.1710 O.co2     1 TPO        -0.5537
     26 C         -18.4360  -16.9950  -28.2740 C.2       1 TPO         0.2063
     27 O         -17.8100  -17.2720  -29.2900 O.2       1 TPO        -0.3943
     28 N         -18.7450  -17.9150  -27.3720 N.am      1 LYS        -0.2694
     29 CA        -18.3720  -19.3030  -27.5920 C.3       1 LYS         0.0944
     30 C         -19.3080  -19.8440  -28.6820 C.2       1 LYS         0.0601
     31 O         -19.0640  -19.7000  -29.8730 O.co2     1 LYS        -0.5666
     32 CB        -18.4670  -20.1630  -26.3270 C.3       1 LYS        -0.0177
     33 CG        -18.8500  -21.6650  -26.6140 C.3       1 LYS        -0.0446
     34 CD        -18.8170  -22.5860  -25.4040 C.3       1 LYS        -0.0125
     35 CE        -19.5920  -23.9100  -25.6590 C.3       1 LYS        -0.0354
     36 NZ        -20.5700  -24.2120  -24.5290 N.4       1 LYS         0.2185
     37 OXT       -20.3670  -20.4090  -28.4110 O.co2     1 LYS        -0.5666
     38 H         -12.0969  -10.5862  -26.3391 H         1 ALA         0.2015
     39 H         -13.2217  -10.0597  -25.2280 H         1 ALA         0.2015
     40 H         -11.8070  -10.7708  -24.7086 H         1 ALA         0.2015
     41 H         -12.4351  -12.8801  -25.6514 H         1 ALA         0.1095
     42 H         -14.6064  -11.6869  -23.8884 H         1 ALA         0.0310
     43 H         -14.3066  -13.4211  -24.1596 H         1 ALA         0.0310
     44 H         -13.0877  -12.4267  -23.3251 H         1 ALA         0.0310
     45 H         -14.3724  -14.1243  -26.4059 H         1 ARG         0.1884
     46 H         -16.1252  -12.5846  -28.2486 H         1 ARG         0.0800
     47 H         -14.0937  -13.2718  -29.5182 H         1 ARG         0.0313
     48 H         -15.5932  -14.1344  -30.0979 H         1 ARG         0.0313
     49 H         -14.9314  -16.1287  -29.0463 H         1 ARG         0.0301
     50 H         -13.5551  -15.2930  -28.2040 H         1 ARG         0.0301
     51 H         -12.7567  -14.8100  -30.6641 H         1 ARG         0.0689
     52 H         -13.8028  -16.2135  -31.0670 H         1 ARG         0.0689
     53 H         -11.2498  -16.2307  -29.6300 H         1 ARG         0.2642
     54 H         -10.3640  -18.2057  -29.0658 H         1 ARG         0.2615
     55 H         -11.3243  -19.6841  -29.1812 H         1 ARG         0.2615
     56 H         -14.2304  -18.0624  -30.3463 H         1 ARG         0.2615
     57 H         -13.4953  -19.6056  -29.8997 H         1 ARG         0.2615
     58 H         -17.9691  -13.8685  -29.1075 H         1 TPO         0.1884
     59 H         -19.0817  -15.4502  -26.9441 H         1 TPO         0.0830
     60 H         -19.8848  -15.4107  -29.9468 H         1 TPO         0.0695
     61 H         -20.8538  -17.2770  -28.8164 H         1 TPO         0.0260
     62 H         -21.5086  -16.1915  -27.5658 H         1 TPO         0.0260
     63 H         -22.0540  -16.0364  -29.2539 H         1 TPO         0.0260
     64 H         -19.2446  -17.6495  -26.5233 H         1 LYS         0.1875
     65 H         -17.3253  -19.3493  -27.8927 H         1 LYS         0.0726
     66 H         -19.2521  -19.7389  -25.7011 H         1 LYS         0.0305
     67 H         -17.4846  -20.1602  -25.8548 H         1 LYS         0.0305
     68 H         -18.1103  -22.0470  -27.3176 H         1 LYS         0.0269
     69 H         -19.8781  -21.6615  -26.9760 H         1 LYS         0.0269
     70 H         -19.2902  -22.0692  -24.5691 H         1 LYS         0.0317
     71 H         -17.7770  -22.8348  -25.1931 H         1 LYS         0.0317
     72 H         -18.8714  -24.7256  -25.7190 H         1 LYS         0.0813
     73 H         -20.1566  -23.8064  -26.5856 H         1 LYS         0.0813
     74 H         -21.0594  -25.0844  -24.7286 H         1 LYS         0.1994
     75 H         -20.0571  -24.3014  -23.6519 H         1 LYS         0.1994
     76 H         -21.2455  -23.4515  -24.4532 H         1 LYS         0.1994
@<TRIPOS>BOND
     1    1    2 1  
     2    2    3 1  
     3    2    5 1  
     4    3    4 2  
     5    3    6 am 
     6    6    7 1  
     7    7    8 1  
     8    7   10 1  
     9    8    9 2  
    10    8   17 am 
    11   10   11 1  
    12   11   12 1  
    13   12   13 1  
    14   13   14 ar 
    15   14   15 ar 
    16   14   16 ar 
    17   17   18 1  
    18   18   19 1  
    19   18   26 1  
    20   19   20 1  
    21   19   21 1  
    22   21   22 1  
    23   22   23 ar 
    24   22   24 ar 
    25   22   25 ar 
    26   26   27 2  
    27   26   28 am 
    28   28   29 1  
    29   29   30 1  
    30   29   32 1  
    31   30   31 ar 
    32   30   37 ar 
    33   32   33 1  
    34   33   34 1  
    35   34   35 1  
    36   35   36 1  
    37    1   38 1  
    38    1   39 1  
    39    1   40 1  
    40    2   41 1  
    41    5   42 1  
    42    5   43 1  
    43    5   44 1  
    44    6   45 1  
    45    7   46 1  
    46   10   47 1  
    47   10   48 1  
    48   11   49 1  
    49   11   50 1  
    50   12   51 1  
    51   12   52 1  
    52   13   53 1  
    53   15   54 1  
    54   15   55 1  
    55   16   56 1  
    56   16   57 1  
    57   17   58 1  
    58   18   59 1  
    59   19   60 1  
    60   20   61 1  
    61   20   62 1  
    62   20   63 1  
    63   28   64 1  
    64   29   65 1  
    65   32   66 1  
    66   32   67 1  
    67   33   68 1  
    68   33   69 1  
    69   34   70 1  
    70   34   71 1  
    71   35   72 1  
    72   35   73 1  
    73   36   74 1  
    74   36   75 1  
    75   36   76 1  
@<TRIPOS>SUBSTRUCTURE
     1 ALA         1

