3uec_ligand
  -I-interpret- 

 78 77  0  0  0  0  0  0  0  0999 V2000
  -12.5250  -10.7760  -25.4330 N   0  3  0  0  0
  -13.1820  -12.1080  -25.4670 C   0  0  0  0  0
  -14.2120  -12.1100  -26.5930 C   0  0  0  0  0
  -14.5760  -11.0380  -27.1030 O   0  0  0  0  0
  -13.8450  -12.4350  -24.1090 C   0  0  0  0  0
  -14.6820  -13.3130  -26.9410 N   0  0  0  0  0
  -15.6210  -13.5310  -28.0530 C   0  0  0  0  0
  -16.6520  -14.6220  -27.6890 C   0  0  0  0  0
  -16.3630  -15.5030  -26.8270 O   0  0  0  0  0
  -14.8630  -14.0120  -29.2980 C   0  0  0  0  0
  -14.1620  -15.3590  -29.1070 C   0  0  0  0  0
  -13.2170  -15.7240  -30.2890 C   0  0  0  0  0
  -12.1580  -16.6390  -29.8510 N   0  0  0  0  0
  -12.2830  -17.9640  -29.7170 C   0  0  0  0  0
  -11.2430  -18.6730  -29.2880 N   0  0  0  0  0
  -13.4270  -18.5940  -30.0110 N   0  0  0  0  0
  -17.8180  -14.5610  -28.3740 N   0  0  0  0  0
  -18.8720  -15.5510  -28.0090 C   0  0  0  0  0
  -20.0770  -15.2710  -28.8830 C   0  0  0  0  0
  -21.2050  -16.2660  -28.6100 C   0  0  0  0  0
  -20.3940  -13.9270  -28.6360 O   0  0  0  0  0
  -20.9720  -12.9560  -29.6560 P   0  0  0  0  0
  -20.1550  -12.9520  -30.9140 O   0  0  0  0  0
  -22.5180  -13.3760  -29.7480 O   0  0  0  0  0
  -20.9960  -11.4220  -29.1710 O   0  0  0  0  0
  -18.4360  -16.9950  -28.2740 C   0  0  0  0  0
  -17.8100  -17.2720  -29.2900 O   0  0  0  0  0
  -18.7450  -17.9150  -27.3720 N   0  0  0  0  0
  -18.3720  -19.3030  -27.5920 C   0  0  0  0  0
  -19.3080  -19.8440  -28.6820 C   0  0  0  0  0
  -19.0640  -19.7000  -29.8730 O   0  0  0  0  0
  -18.4670  -20.1630  -26.3270 C   0  0  0  0  0
  -18.8500  -21.6650  -26.6140 C   0  0  0  0  0
  -18.8170  -22.5860  -25.4040 C   0  0  0  0  0
  -19.5920  -23.9100  -25.6590 C   0  0  0  0  0
  -20.5700  -24.2120  -24.5290 N   0  3  0  0  0
  -20.3670  -20.4090  -28.4110 O   0  0  0  0  0
  -12.0969  -10.5862  -26.3391 H   0  0  0  0  0
  -13.2217  -10.0597  -25.2280 H   0  0  0  0  0
  -11.8070  -10.7708  -24.7086 H   0  0  0  0  0
  -12.4351  -12.8801  -25.6514 H   0  0  0  0  0
  -14.6064  -11.6869  -23.8884 H   0  0  0  0  0
  -14.3066  -13.4211  -24.1596 H   0  0  0  0  0
  -13.0877  -12.4267  -23.3251 H   0  0  0  0  0
  -14.3724  -14.1243  -26.4059 H   0  0  0  0  0
  -16.1252  -12.5846  -28.2486 H   0  0  0  0  0
  -14.0937  -13.2718  -29.5182 H   0  0  0  0  0
  -15.5932  -14.1344  -30.0979 H   0  0  0  0  0
  -14.9314  -16.1287  -29.0463 H   0  0  0  0  0
  -13.5551  -15.2930  -28.2040 H   0  0  0  0  0
  -12.7567  -14.8100  -30.6641 H   0  0  0  0  0
  -13.8028  -16.2135  -31.0670 H   0  0  0  0  0
  -11.2498  -16.2307  -29.6300 H   0  0  0  0  0
  -10.3640  -18.2057  -29.0658 H   0  0  0  0  0
  -13.4936  -19.6063  -29.9050 H   0  0  0  0  0
  -14.2321  -18.0617  -30.3410 H   0  0  0  0  0
  -17.9691  -13.8685  -29.1075 H   0  0  0  0  0
  -19.0817  -15.4502  -26.9441 H   0  0  0  0  0
  -19.8848  -15.4107  -29.9468 H   0  0  0  0  0
  -20.8538  -17.2770  -28.8164 H   0  0  0  0  0
  -21.5086  -16.1915  -27.5658 H   0  0  0  0  0
  -22.0540  -16.0364  -29.2539 H   0  0  0  0  0
  -22.9126  -13.3335  -28.8739 H   0  0  0  0  0
  -21.5077  -11.3514  -28.3618 H   0  0  0  0  0
  -19.2446  -17.6495  -26.5233 H   0  0  0  0  0
  -17.3253  -19.3493  -27.8927 H   0  0  0  0  0
  -19.2521  -19.7389  -25.7011 H   0  0  0  0  0
  -17.4846  -20.1602  -25.8548 H   0  0  0  0  0
  -18.1103  -22.0470  -27.3176 H   0  0  0  0  0
  -19.8781  -21.6615  -26.9760 H   0  0  0  0  0
  -19.2902  -22.0692  -24.5691 H   0  0  0  0  0
  -17.7770  -22.8348  -25.1931 H   0  0  0  0  0
  -18.8714  -24.7256  -25.7190 H   0  0  0  0  0
  -20.1566  -23.8064  -26.5856 H   0  0  0  0  0
  -21.0594  -25.0844  -24.7286 H   0  0  0  0  0
  -20.0571  -24.3014  -23.6519 H   0  0  0  0  0
  -21.2455  -23.4515  -24.4532 H   0  0  0  0  0
  -20.4608  -20.4704  -27.4576 H   0  0  0  0  0
  1  2  1  0  0  0
  2  3  1  0  0  0
  2  5  1  0  0  0
  3  4  2  0  0  0
  3  6  1  0  0  0
  6  7  1  0  0  0
  7  8  1  0  0  0
  7 10  1  0  0  0
  8  9  2  0  0  0
  8 17  1  0  0  0
 10 11  1  0  0  0
 11 12  1  0  0  0
 12 13  1  0  0  0
 13 14  1  0  0  0
 14 15  2  0  0  0
 14 16  1  0  0  0
 17 18  1  0  0  0
 18 19  1  0  0  0
 18 26  1  0  0  0
 19 20  1  0  0  0
 19 21  1  0  0  0
 21 22  1  0  0  0
 22 23  2  0  0  0
 22 24  1  0  0  0
 22 25  1  0  0  0
 26 27  2  0  0  0
 26 28  1  0  0  0
 28 29  1  0  0  0
 29 30  1  0  0  0
 29 32  1  0  0  0
 30 31  2  0  0  0
 30 37  1  0  0  0
 32 33  1  0  0  0
 33 34  1  0  0  0
 34 35  1  0  0  0
 35 36  1  0  0  0
  1 38  1  0  0  0
  1 39  1  0  0  0
  1 40  1  0  0  0
  2 41  1  0  0  0
  5 42  1  0  0  0
  5 43  1  0  0  0
  5 44  1  0  0  0
  6 45  1  0  0  0
  7 46  1  0  0  0
 10 47  1  0  0  0
 10 48  1  0  0  0
 11 49  1  0  0  0
 11 50  1  0  0  0
 12 51  1  0  0  0
 12 52  1  0  0  0
 13 53  1  0  0  0
 15 54  1  0  0  0
 16 55  1  0  0  0
 16 56  1  0  0  0
 17 57  1  0  0  0
 18 58  1  0  0  0
 19 59  1  0  0  0
 20 60  1  0  0  0
 20 61  1  0  0  0
 20 62  1  0  0  0
 24 63  1  0  0  0
 25 64  1  0  0  0
 28 65  1  0  0  0
 29 66  1  0  0  0
 32 67  1  0  0  0
 32 68  1  0  0  0
 33 69  1  0  0  0
 33 70  1  0  0  0
 34 71  1  0  0  0
 34 72  1  0  0  0
 35 73  1  0  0  0
 35 74  1  0  0  0
 36 75  1  0  0  0
 36 76  1  0  0  0
 36 77  1  0  0  0
 37 78  1  0  0  0
M  END
$$$$
