3rbu_ligand
  -I-interpret- 

 25 24  0  0  0  0  0  0  0  0999 V2000
  -37.4720   18.3070   39.8580 O   0  0  0  0  0
  -36.6850   17.6860   39.0960 C   0  0  0  0  0
  -36.6890   16.4160   39.0090 O   0  0  0  0  0
  -35.8390   18.4320   38.3800 C   0  0  0  0  0
  -35.9700   19.9870   38.4110 C   0  0  0  0  0
  -34.7070   20.6380   37.8050 C   0  0  0  0  0
  -33.6330   20.5090   38.8410 C   0  0  0  0  0
  -33.6840   21.2680   39.8520 O   0  0  0  0  0
  -32.7150   19.6550   38.6640 O   0  0  0  0  0
  -34.1740   20.1830   36.3760 C   0  0  0  0  0
  -33.0120   21.5630   35.7480 P   0  0  0  0  0
  -32.5450   22.3330   36.9730 O   0  0  0  0  0
  -31.6630   21.0830   35.2560 O   0  0  0  0  0
  -33.7770   22.6610   34.9530 O   0  0  0  0  0
  -36.0202   16.1374   38.3792 H   0  0  0  0  0
  -36.0378   18.1583   37.3438 H   0  0  0  0  0
  -34.8585   18.2284   38.8104 H   0  0  0  0  0
  -36.0816   20.3162   39.4441 H   0  0  0  0  0
  -36.8411   20.2844   37.8272 H   0  0  0  0  0
  -35.0082   21.6579   37.5657 H   0  0  0  0  0
  -32.8676   19.1893   37.8385 H   0  0  0  0  0
  -35.0034   20.0330   35.6849 H   0  0  0  0  0
  -33.6426   19.2339   36.4468 H   0  0  0  0  0
  -33.3048   22.7158   37.4178 H   0  0  0  0  0
  -34.6087   22.8520   35.3928 H   0  0  0  0  0
  1  2  2  0  0  0
  2  3  1  0  0  0
  2  4  1  0  0  0
  4  5  1  0  0  0
  5  6  1  0  0  0
  6  7  1  0  0  0
  6 10  1  0  0  0
  7  8  2  0  0  0
  7  9  1  0  0  0
 10 11  1  0  0  0
 11 12  1  0  0  0
 11 13  2  0  0  0
 11 14  1  0  0  0
  3 15  1  0  0  0
  4 16  1  0  0  0
  4 17  1  0  0  0
  5 18  1  0  0  0
  5 19  1  0  0  0
  6 20  1  0  0  0
  9 21  1  0  0  0
 10 22  1  0  0  0
 10 23  1  0  0  0
 12 24  1  0  0  0
 14 25  1  0  0  0
M  END
$$$$
