1ba8_ligand
  -I-interpret- 

 64 65  0  0  0  0  0  0  0  0999 V2000
   17.4360  -16.4350   23.5770 N   0  0  0  0  0
   18.4420  -15.7570   22.8520 C   0  0  0  0  0
   19.0330  -16.4690   21.6970 C   0  0  0  0  0
   19.9950  -15.6810   20.8840 C   0  0  0  0  0
   17.9020  -14.3370   22.4450 C   0  0  0  0  0
   19.7720  -14.1610   20.8010 C   0  0  0  0  0
   16.8830  -13.9820   22.9910 O   0  0  0  0  0
   18.5700  -13.7210   21.5090 N   0  0  0  0  0
   18.0610  -12.3810   21.1590 C   0  0  0  0  0
   16.7650  -12.5590   20.3690 C   0  0  0  0  0
   16.5080  -13.6410   19.8490 O   0  0  0  0  0
   15.9480  -11.5220   20.4040 N   0  0  0  0  0
   14.6430  -11.5230   19.6890 C   0  0  0  0  0
   14.7650  -10.7360   18.4010 C   0  0  0  0  0
   13.7430  -10.2930   17.8470 O   0  0  0  0  0
   13.5370  -10.9750   20.5490 C   0  0  0  0  0
   13.1190  -11.9050   21.6620 C   0  0  0  0  0
   12.1690  -11.2620   22.5840 C   0  0  0  0  0
   11.6040  -12.2630   23.4450 N   0  0  0  0  0
   10.8140  -12.0520   24.4600 C   0  0  0  0  0
   10.5110  -10.7690   24.7930 N   0  0  0  0  0
   10.1950  -13.0590   25.1040 N   0  0  0  0  0
   18.5050  -17.0080   26.1270 C   0  0  0  0  0
   19.7260  -16.1890   25.9210 C   0  0  0  0  0
   19.5880  -14.8030   26.0630 C   0  0  0  0  0
   20.7160  -14.0070   25.8690 C   0  0  0  0  0
   21.9460  -14.5170   25.5360 C   0  0  0  0  0
   22.0680  -15.8840   25.3950 C   0  0  0  0  0
   20.9500  -16.7130   25.5920 C   0  0  0  0  0
   17.8190  -17.6730   24.6280 S   0  0  0  0  0
   16.5900  -18.2410   24.9980 O   0  0  0  0  0
   18.8640  -18.3330   23.9230 O   0  0  0  0  0
   16.4604  -16.1632   23.4558 H   0  0  0  0  0
   19.2901  -15.6820   23.5325 H   0  0  0  0  0
   18.2061  -16.7273   21.0354 H   0  0  0  0  0
   19.5894  -17.3132   22.1044 H   0  0  0  0  0
   19.8900  -16.0502   19.8638 H   0  0  0  0  0
   20.9637  -15.8106   21.3665 H   0  0  0  0  0
   19.6529  -13.8995   19.7496 H   0  0  0  0  0
   20.6288  -13.6735   21.2661 H   0  0  0  0  0
   18.7962  -11.8438   20.5599 H   0  0  0  0  0
   17.8742  -11.8014   22.0630 H   0  0  0  0  0
   16.2196  -10.6958   20.9370 H   0  0  0  0  0
   14.3835  -12.5552   19.4537 H   0  0  0  0  0
   15.1789  -11.4457   17.6847 H   0  0  0  0  0
   15.3343   -9.8480   18.6756 H   0  0  0  0  0
   13.9919   -9.8219   17.0484 H   0  0  0  0  0
   12.6692  -10.8228   19.9073 H   0  0  0  0  0
   13.9053  -10.0586   21.0101 H   0  0  0  0  0
   14.0083  -12.1848   22.2267 H   0  0  0  0  0
   12.6314  -12.7730   21.2182 H   0  0  0  0  0
   11.3763  -10.7759   22.0154 H   0  0  0  0  0
   12.6870  -10.5122   23.1820 H   0  0  0  0  0
   11.8443  -13.2334   23.2425 H   0  0  0  0  0
    9.8229  -10.5802   25.5219 H   0  0  0  0  0
   10.9718   -9.9953   24.3139 H   0  0  0  0  0
   10.3379  -14.0224   24.8010 H   0  0  0  0  0
   17.7496  -16.3572   26.5674 H   0  0  0  0  0
   18.7846  -17.8524   26.7571 H   0  0  0  0  0
   18.6258  -14.3588   26.3180 H   0  0  0  0  0
   20.6164  -12.9280   25.9874 H   0  0  0  0  0
   22.8029  -13.8600   25.3870 H   0  0  0  0  0
   23.0310  -16.3210   25.1309 H   0  0  0  0  0
   21.0578  -17.7920   25.4813 H   0  0  0  0  0
  1  2  1  0  0  0
 30  1  1  0  0  0
  2  3  1  0  0  0
  2  5  1  0  0  0
  3  4  1  0  0  0
  4  6  1  0  0  0
  5  7  2  0  0  0
  5  8  1  0  0  0
  8  6  1  0  0  0
  8  9  1  0  0  0
  9 10  1  0  0  0
 10 11  2  0  0  0
 10 12  1  0  0  0
 12 13  1  0  0  0
 13 14  1  0  0  0
 13 16  1  0  0  0
 14 15  1  0  0  0
 16 17  1  0  0  0
 17 18  1  0  0  0
 18 19  1  0  0  0
 19 20  1  0  0  0
 20 21  1  0  0  0
 20 22  2  0  0  0
 23 24  1  0  0  0
 23 30  1  0  0  0
 24 25  4  0  0  0
 24 29  4  0  0  0
 25 26  4  0  0  0
 26 27  4  0  0  0
 27 28  4  0  0  0
 28 29  4  0  0  0
 30 31  2  0  0  0
 30 32  2  0  0  0
  1 33  1  0  0  0
  2 34  1  0  0  0
  3 35  1  0  0  0
  3 36  1  0  0  0
  4 37  1  0  0  0
  4 38  1  0  0  0
  6 39  1  0  0  0
  6 40  1  0  0  0
  9 41  1  0  0  0
  9 42  1  0  0  0
 12 43  1  0  0  0
 13 44  1  0  0  0
 14 45  1  0  0  0
 14 46  1  0  0  0
 15 47  1  0  0  0
 16 48  1  0  0  0
 16 49  1  0  0  0
 17 50  1  0  0  0
 17 51  1  0  0  0
 18 52  1  0  0  0
 18 53  1  0  0  0
 19 54  1  0  0  0
 21 55  1  0  0  0
 21 56  1  0  0  0
 22 57  1  0  0  0
 23 58  1  0  0  0
 23 59  1  0  0  0
 25 60  1  0  0  0
 26 61  1  0  0  0
 27 62  1  0  0  0
 28 63  1  0  0  0
 29 64  1  0  0  0
M  END
$$$$
