### 
### Created by X-TOOL on Mon Sep 10 21:13:12 2018
### 

@<TRIPOS>MOLECULE
4hgc_ligand
  187   190     1     0     0
SMALL
GAST_HUCK


@<TRIPOS>ATOM
      1 N          26.1060   -8.6600   11.7050 N.4       1 GLY         0.2357
      2 CA         25.3470   -9.9450   11.6860 C.3       1 GLY         0.0545
      3 C          23.9600   -9.7690   11.1150 C.2       1 GLY         0.2236
      4 O          23.5450   -8.6190   10.8300 O.2       1 GLY        -0.3910
      5 N          23.2240  -10.8870   10.9880 N.am      1 ARG        -0.2613
      6 CA         21.8070  -10.8050   10.5640 C.3       1 ARG         0.1312
      7 C          20.9360  -10.2140   11.7180 C.2       1 ARG         0.2039
      8 O          20.7230  -10.8070   12.7890 O.2       1 ARG        -0.3944
      9 CB         21.3010  -12.1480   10.0880 C.3       1 ARG        -0.0092
     10 CG         19.8000  -12.2190    9.9500 C.3       1 ARG        -0.0156
     11 CD         19.3620  -13.5060    9.2540 C.3       1 ARG         0.0627
     12 NE         18.4690  -14.2540   10.1320 N.pl3     1 ARG        -0.2723
     13 CZ         17.1360  -14.1610   10.1600 C.cat     1 ARG         0.2882
     14 NH1        16.4470  -13.3780    9.3280 N.pl3     1 ARG        -0.2849
     15 NH2        16.4890  -14.8870   11.0330 N.pl3     1 ARG        -0.2849
     16 N          20.4800   -9.0010   11.5370 N.am      1 CYS        -0.2629
     17 CA         19.7810   -8.2800   12.5960 C.3       1 CYS         0.1406
     18 C          18.6330   -7.4390   12.0520 C.2       1 CYS         0.2048
     19 O          18.5910   -7.0320   10.9110 O.2       1 CYS        -0.3944
     20 CB         20.7570   -7.3180   13.3080 C.3       1 CYS         0.0443
     21 SG         22.2620   -7.9670   14.1010 S.3       1 CYS        -0.0882
     22 N          17.7020   -7.1160   12.9380 N.am      1 THR        -0.2613
     23 CA         16.6310   -6.1880   12.6310 C.3       1 THR         0.1567
     24 C          17.1720   -4.7810   13.0100 C.2       1 THR         0.2088
     25 O          17.8540   -4.5720   14.0370 O.2       1 THR        -0.3941
     26 CB         15.3750   -6.5040   13.4800 C.3       1 THR         0.0924
     27 OG1        15.7050   -6.3960   14.8650 O.3       1 THR        -0.3874
     28 CG2        14.8000   -7.8820   13.1840 C.3       1 THR        -0.0346
     29 N          16.6640   -3.6760   12.2920 N.am      1 NLY        -0.2524
     30 CB         16.0810   -3.8150   10.9600 C.3       1 NLY         0.0367
     31 CG         17.2910   -3.8480   10.0190 C.3       1 NLY        -0.0276
     32 CD         17.0650   -3.3360    8.6940 C.3       1 NLY        -0.0108
     33 CE         18.3400   -3.4950    7.8570 C.3       1 NLY        -0.0353
     34 NZ         18.0560   -3.0780    6.5110 N.4       1 NLY         0.2185
     35 CA         16.9830   -2.3370   12.7460 C.3       1 NLY         0.1229
     36 C2         16.0320   -1.8120   13.7950 C.2       1 NLY         0.2010
     37 O          15.4620   -0.7200   13.6420 O.2       1 NLY        -0.3947
     38 N          15.8500   -2.5860   14.9230 N.am      1 SER        -0.2618
     39 CA         15.0780   -2.0540   16.0040 C.3       1 SER         0.1539
     40 C          15.9840   -1.4860   17.0780 C.2       1 SER         0.2062
     41 O          17.2160   -1.6290   17.0030 O.2       1 SER        -0.3943
     42 CB         14.1810   -3.1700   16.5060 C.3       1 SER         0.0843
     43 OG         14.9400   -4.3510   16.7250 O.3       1 SER        -0.3903
     44 N          15.4020   -0.7950   18.0570 N.am      1 ILE        -0.2634
     45 CA         16.1920   -0.2690   19.2160 C.3       1 ILE         0.1337
     46 C          15.7060   -0.9930   20.4280 C.2       1 ILE         0.2067
     47 O          14.5890   -0.7300   20.8970 O.2       1 ILE        -0.3942
     48 CB         16.0860    1.2490   19.3850 C.3       1 ILE        -0.0037
     49 CG1        16.6520    1.9390   18.1180 C.3       1 ILE        -0.0491
     50 CG2        16.8010    1.6540   20.6870 C.3       1 ILE        -0.0582
     51 CD1        16.3840    3.4350   18.0480 C.3       1 ILE        -0.0648
     52 N          16.4900   -1.9720   20.9160 N.am      1 PRO        -0.2498
     53 CA         17.7590   -2.5000   20.4390 C.3       1 PRO         0.1340
     54 C          17.5800   -3.4550   19.2570 C.2       1 PRO         0.2066
     55 O          16.4690   -4.0710   19.0550 O.2       1 PRO        -0.3942
     56 CB         18.3380   -3.2160   21.6630 C.3       1 PRO        -0.0104
     57 CG         17.1510   -3.5620   22.4910 C.3       1 PRO        -0.0281
     58 CD         16.0440   -2.6170   22.1520 C.3       1 PRO         0.0369
     59 N          18.6520   -3.6210   18.4660 N.am      1 PRO        -0.2498
     60 CA         18.5410   -4.6140   17.4270 C.3       1 PRO         0.1338
     61 C          18.2630   -6.0380   17.9200 C.2       1 PRO         0.2041
     62 O          18.7020   -6.4460   19.0350 O.2       1 PRO        -0.3944
     63 CB         19.9160   -4.6020   16.7520 C.3       1 PRO        -0.0104
     64 CG         20.6290   -3.4050   17.2240 C.3       1 PRO        -0.0281
     65 CD         19.9940   -3.0060   18.5250 C.3       1 PRO         0.0369
     66 N          17.5830   -6.8010   17.0730 N.am      1 ILE        -0.2635
     67 CA         17.3930   -8.2260   17.3440 C.3       1 ILE         0.1335
     68 C          18.2760   -8.9260   16.3430 C.2       1 ILE         0.2042
     69 O          18.0640   -8.8210   15.1040 O.2       1 ILE        -0.3944
     70 CB         15.9460   -8.7100   17.1960 C.3       1 ILE        -0.0037
     71 CG1        15.0250   -7.9780   18.1780 C.3       1 ILE        -0.0491
     72 CG2        15.8910  -10.2060   17.4420 C.3       1 ILE        -0.0582
     73 CD1        13.5250   -8.0120   17.8570 C.3       1 ILE        -0.0648
     74 N          19.2890   -9.6310   16.8350 N.am      1 CYS        -0.2629
     75 CA         20.2410  -10.2480   15.9330 C.3       1 CYS         0.1406
     76 C          20.2920  -11.7480   16.1260 C.2       1 CYS         0.2043
     77 O          19.8300  -12.2990   17.1440 O.2       1 CYS        -0.3944
     78 CB         21.6040   -9.6960   16.1350 C.3       1 CYS         0.0443
     79 SG         21.8540   -7.9560   16.0730 S.3       1 CYS        -0.0882
     80 N          20.8710  -12.4050   15.1380 N.am      1 PHE        -0.2677
     81 CA         20.8010  -13.8630   14.9950 C.3       1 PHE         0.1039
     82 C          22.1540  -14.3930   14.5320 C.2       1 PHE         0.0621
     83 O          22.6686  -13.9366   13.4763 O.co2     1 PHE        -0.5664
     84 CB         19.7450  -14.2120   13.9440 C.3       1 PHE         0.0159
     85 CG         18.4100  -13.5710   14.1880 C.ar      1 PHE        -0.0392
     86 CD1        17.4430  -14.2090   14.9470 C.ar      1 PHE        -0.0602
     87 CD2        18.0930  -12.3280   13.6070 C.ar      1 PHE        -0.0602
     88 CE1        16.1930  -13.6160   15.1360 C.ar      1 PHE        -0.0686
     89 CE2        16.8520  -11.7290   13.7810 C.ar      1 PHE        -0.0686
     90 CZ         15.9050  -12.3750   14.5680 C.ar      1 PHE        -0.0687
     91 O          22.7517  -15.2792   15.1991 O.co2     1 PHE        -0.5664
     92 H1         27.0236   -8.8175   12.0915 H         1 GLY         0.2012
     93 H2         25.6137   -7.9873   12.2717 H         1 GLY         0.2012
     94 H3         26.1934   -8.3074   10.7647 H         1 GLY         0.2012
     95 H4         25.2628  -10.3240   12.7152 H         1 GLY         0.1061
     96 H5         25.8955  -10.6734   11.0707 H         1 GLY         0.1061
     97 H6         23.6351  -11.7780   11.1807 H         1 ARG         0.1884
     98 H7         21.7484  -10.1106    9.7130 H         1 ARG         0.0800
     99 H8         21.6195  -12.9144   10.8099 H         1 ARG         0.0313
    100 H9         21.7499  -12.3597    9.1064 H         1 ARG         0.0313
    101 H10        19.4542  -11.3578    9.3594 H         1 ARG         0.0301
    102 H11        19.3468  -12.1824   10.9516 H         1 ARG         0.0301
    103 H12        20.2467  -14.1177    9.0237 H         1 ARG         0.0689
    104 H13        18.8351  -13.2573    8.3210 H         1 ARG         0.0689
    105 H14        18.9058  -14.9144   10.7908 H         1 ARG         0.2642
    106 H15        15.4195  -13.3402    9.3886 H         1 ARG         0.2615
    107 H16        16.9426  -12.8113    8.6251 H         1 ARG         0.2615
    108 H17        17.0076  -15.4962   11.6817 H         1 ARG         0.2615
    109 H18        15.4604  -14.8500   11.0724 H         1 ARG         0.2615
    110 H19        20.6138   -8.5570   10.6510 H         1 CYS         0.1884
    111 H20        19.3859   -9.0090   13.3188 H         1 CYS         0.0808
    112 H21        20.1812   -6.8052   14.0925 H         1 CYS         0.0432
    113 H22        21.0855   -6.5855   12.5560 H         1 CYS         0.0432
    114 H23        17.7393   -7.5262   13.8492 H         1 THR         0.1884
    115 H24        16.3775   -6.2326   11.5616 H         1 THR         0.0826
    116 H25        14.6038   -5.7564   13.2427 H         1 THR         0.0639
    117 H26        16.0021   -5.5129   15.0507 H         1 THR         0.2101
    118 H27        13.9135   -8.0521   13.8126 H         1 THR         0.0257
    119 H28        15.5569   -8.6498   13.4021 H         1 THR         0.0257
    120 H29        14.5140   -7.9399   12.1234 H         1 THR         0.0257
    121 H30        15.4302   -2.9590   10.7281 H         1 NLY         0.0524
    122 H31        15.5021   -4.7472   10.8832 H         1 NLY         0.0524
    123 H32        17.6182   -4.8941    9.9258 H         1 NLY         0.0287
    124 H33        18.0933   -3.2525   10.4791 H         1 NLY         0.0287
    125 H34        16.7968   -2.2709    8.7538 H         1 NLY         0.0317
    126 H35        16.2442   -3.8948    8.2206 H         1 NLY         0.0317
    127 H36        18.6572   -4.5483    7.8601 H         1 NLY         0.0813
    128 H37        19.1409   -2.8696    8.2781 H         1 NLY         0.0813
    129 H38        18.8854   -3.1765    5.9467 H         1 NLY         0.1994
    130 H39        17.7634   -2.1134    6.5127 H         1 NLY         0.1994
    131 H40        17.3201   -3.6517    6.1297 H         1 NLY         0.1994
    132 H41        16.9535   -1.6597   11.8797 H         1 NLY         0.0765
    133 H42        17.9979   -2.3461   13.1700 H         1 NLY         0.0765
    134 H43        16.2498   -3.5006   14.9837 H         1 SER         0.1884
    135 H44        14.4449   -1.2370   15.6276 H         1 SER         0.0823
    136 H45        13.4011   -3.3734   15.7575 H         1 SER         0.0606
    137 H46        13.7106   -2.8604   17.4509 H         1 SER         0.0606
    138 H47        15.6131   -4.1780   17.3727 H         1 SER         0.2097
    139 H48        14.4175   -0.6239   18.0174 H         1 ILE         0.1883
    140 H49        17.2527   -0.5125   19.0563 H         1 ILE         0.0803
    141 H50        15.0256    1.5262   19.4781 H         1 ILE         0.0345
    142 H51        16.1969    1.4658   17.2354 H         1 ILE         0.0267
    143 H52        17.7406    1.7826   18.0976 H         1 ILE         0.0267
    144 H53        16.3440    1.1248   21.5361 H         1 ILE         0.0235
    145 H54        16.7039    2.7395   20.8363 H         1 ILE         0.0235
    146 H55        17.8659    1.3870   20.6189 H         1 ILE         0.0235
    147 H56        16.8173    3.8422   17.1226 H         1 ILE         0.0230
    148 H57        16.8423    3.9307   18.9165 H         1 ILE         0.0230
    149 H58        15.2987    3.6138   18.0543 H         1 ILE         0.0230
    150 H59        18.4205   -1.6775   20.1295 H         1 PRO         0.0802
    151 H60        19.0173   -2.5512   22.2167 H         1 PRO         0.0313
    152 H61        18.8794   -4.1248   21.3614 H         1 PRO         0.0313
    153 H62        17.4033   -3.4703   23.5577 H         1 PRO         0.0287
    154 H63        16.8367   -4.5939   22.2759 H         1 PRO         0.0287
    155 H64        15.1019   -3.1614   21.9903 H         1 PRO         0.0524
    156 H65        15.9059   -1.8746   22.9519 H         1 PRO         0.0524
    157 H66        17.7509   -4.3222   16.7195 H         1 PRO         0.0802
    158 H67        19.7977   -4.5623   15.6591 H         1 PRO         0.0313
    159 H68        20.4777   -5.5068   17.0274 H         1 PRO         0.0313
    160 H69        20.5310   -2.5918   16.4898 H         1 PRO         0.0287
    161 H70        21.6939   -3.6344   17.3771 H         1 PRO         0.0287
    162 H71        20.5677   -3.3985   19.3775 H         1 PRO         0.0524
    163 H72        19.9202   -1.9114   18.6054 H         1 PRO         0.0524
    164 H73        17.1974   -6.3984   16.2428 H         1 ILE         0.1883
    165 H74        17.7282   -8.4493   18.3676 H         1 ILE         0.0803
    166 H75        15.6044   -8.5030   16.1711 H         1 ILE         0.0345
    167 H76        15.3374   -6.9237   18.2083 H         1 ILE         0.0267
    168 H77        15.1657   -8.4308   19.1706 H         1 ILE         0.0267
    169 H78        16.5557  -10.7191   16.7314 H         1 ILE         0.0235
    170 H79        14.8599  -10.5629   17.3027 H         1 ILE         0.0235
    171 H80        16.2176  -10.4208   18.4702 H         1 ILE         0.0235
    172 H81        12.9722   -7.4562   18.6287 H         1 ILE         0.0230
    173 H82        13.1778   -9.0556   17.8373 H         1 ILE         0.0230
    174 H83        13.3496   -7.5485   16.8750 H         1 ILE         0.0230
    175 H84        19.3942   -9.7355   17.8239 H         1 CYS         0.1884
    176 H85        19.9236  -10.0363   14.9013 H         1 CYS         0.0808
    177 H86        22.2463  -10.1389   15.3596 H         1 CYS         0.0432
    178 H87        21.9412  -10.0321   17.1266 H         1 CYS         0.0432
    179 H88        21.3817  -11.8836   14.4544 H         1 PHE         0.1877
    180 H89        20.5329  -14.3188   15.9596 H         1 PHE         0.0749
    181 H90        19.6093  -15.3036   13.9383 H         1 PHE         0.0467
    182 H91        20.1127  -13.8831   12.9609 H         1 PHE         0.0467
    183 H92        17.6573  -15.1721   15.3959 H         1 PHE         0.0557
    184 H93        18.8404  -11.8232   13.0056 H         1 PHE         0.0557
    185 H94        15.4408  -14.1239   15.7286 H         1 PHE         0.0599
    186 H95        16.6264  -10.7776   13.3130 H         1 PHE         0.0599
    187 H96        14.9398  -11.9127   14.7407 H         1 PHE         0.0559
@<TRIPOS>BOND
     1    1    2 1  
     2    2    3 1  
     3    3    4 2  
     4    3    5 am 
     5    5    6 1  
     6    6    7 1  
     7    6    9 1  
     8    7    8 2  
     9    7   16 am 
    10    9   10 1  
    11   10   11 1  
    12   11   12 1  
    13   12   13 ar 
    14   13   14 ar 
    15   13   15 ar 
    16   16   17 1  
    17   17   18 1  
    18   17   20 1  
    19   18   19 2  
    20   18   22 am 
    21   20   21 1  
    22   21   79 1  
    23   22   23 1  
    24   23   24 1  
    25   23   26 1  
    26   24   25 2  
    27   24   29 am 
    28   26   27 1  
    29   26   28 1  
    30   29   30 1  
    31   29   35 1  
    32   30   31 1  
    33   31   32 1  
    34   32   33 1  
    35   33   34 1  
    36   35   36 1  
    37   36   37 2  
    38   36   38 am 
    39   38   39 1  
    40   39   40 1  
    41   39   42 1  
    42   40   41 2  
    43   40   44 am 
    44   42   43 1  
    45   44   45 1  
    46   45   46 1  
    47   45   48 1  
    48   46   47 2  
    49   46   52 am 
    50   48   49 1  
    51   48   50 1  
    52   49   51 1  
    53   52   53 1  
    54   52   58 1  
    55   53   54 1  
    56   53   56 1  
    57   54   55 2  
    58   54   59 am 
    59   56   57 1  
    60   57   58 1  
    61   59   60 1  
    62   59   65 1  
    63   60   61 1  
    64   60   63 1  
    65   61   62 2  
    66   61   66 am 
    67   63   64 1  
    68   64   65 1  
    69   66   67 1  
    70   67   68 1  
    71   67   70 1  
    72   68   69 2  
    73   68   74 am 
    74   70   71 1  
    75   70   72 1  
    76   71   73 1  
    77   74   75 1  
    78   75   76 1  
    79   75   78 1  
    80   76   77 2  
    81   76   80 am 
    82   78   79 1  
    83   80   81 1  
    84   81   82 1  
    85   81   84 1  
    86   82   83 ar 
    87   84   85 1  
    88   85   86 ar 
    89   85   87 ar 
    90   86   88 ar 
    91   87   89 ar 
    92   88   90 ar 
    93   89   90 ar 
    94   82   91 ar 
    95    1   92 1  
    96    1   93 1  
    97    1   94 1  
    98    2   95 1  
    99    2   96 1  
   100    5   97 1  
   101    6   98 1  
   102    9   99 1  
   103    9  100 1  
   104   10  101 1  
   105   10  102 1  
   106   11  103 1  
   107   11  104 1  
   108   12  105 1  
   109   14  106 1  
   110   14  107 1  
   111   15  108 1  
   112   15  109 1  
   113   16  110 1  
   114   17  111 1  
   115   20  112 1  
   116   20  113 1  
   117   22  114 1  
   118   23  115 1  
   119   26  116 1  
   120   27  117 1  
   121   28  118 1  
   122   28  119 1  
   123   28  120 1  
   124   30  121 1  
   125   30  122 1  
   126   31  123 1  
   127   31  124 1  
   128   32  125 1  
   129   32  126 1  
   130   33  127 1  
   131   33  128 1  
   132   34  129 1  
   133   34  130 1  
   134   34  131 1  
   135   35  132 1  
   136   35  133 1  
   137   38  134 1  
   138   39  135 1  
   139   42  136 1  
   140   42  137 1  
   141   43  138 1  
   142   44  139 1  
   143   45  140 1  
   144   48  141 1  
   145   49  142 1  
   146   49  143 1  
   147   50  144 1  
   148   50  145 1  
   149   50  146 1  
   150   51  147 1  
   151   51  148 1  
   152   51  149 1  
   153   53  150 1  
   154   56  151 1  
   155   56  152 1  
   156   57  153 1  
   157   57  154 1  
   158   58  155 1  
   159   58  156 1  
   160   60  157 1  
   161   63  158 1  
   162   63  159 1  
   163   64  160 1  
   164   64  161 1  
   165   65  162 1  
   166   65  163 1  
   167   66  164 1  
   168   67  165 1  
   169   70  166 1  
   170   71  167 1  
   171   71  168 1  
   172   72  169 1  
   173   72  170 1  
   174   72  171 1  
   175   73  172 1  
   176   73  173 1  
   177   73  174 1  
   178   74  175 1  
   179   75  176 1  
   180   78  177 1  
   181   78  178 1  
   182   80  179 1  
   183   81  180 1  
   184   84  181 1  
   185   84  182 1  
   186   86  183 1  
   187   87  184 1  
   188   88  185 1  
   189   89  186 1  
   190   90  187 1  
@<TRIPOS>SUBSTRUCTURE
     1 GLY         1

