4hgc_ligand
  -I-interpret- 

187190  0  0  0  0  0  0  0  0999 V2000
   26.1060   -8.6600   11.7050 N   0  3  0  0  0
   25.3470   -9.9450   11.6860 C   0  0  0  0  0
   23.9600   -9.7690   11.1150 C   0  0  0  0  0
   23.5450   -8.6190   10.8300 O   0  0  0  0  0
   23.2240  -10.8870   10.9880 N   0  0  0  0  0
   21.8070  -10.8050   10.5640 C   0  0  0  0  0
   20.9360  -10.2140   11.7180 C   0  0  0  0  0
   20.7230  -10.8070   12.7890 O   0  0  0  0  0
   21.3010  -12.1480   10.0880 C   0  0  0  0  0
   19.8000  -12.2190    9.9500 C   0  0  0  0  0
   19.3620  -13.5060    9.2540 C   0  0  0  0  0
   18.4690  -14.2540   10.1320 N   0  0  0  0  0
   17.1360  -14.1610   10.1600 C   0  0  0  0  0
   16.4470  -13.3780    9.3280 N   0  0  0  0  0
   16.4890  -14.8870   11.0330 N   0  0  0  0  0
   20.4800   -9.0010   11.5370 N   0  0  0  0  0
   19.7810   -8.2800   12.5960 C   0  0  0  0  0
   18.6330   -7.4390   12.0520 C   0  0  0  0  0
   18.5910   -7.0320   10.9110 O   0  0  0  0  0
   20.7570   -7.3180   13.3080 C   0  0  0  0  0
   22.2620   -7.9670   14.1010 S   0  0  0  0  0
   17.7020   -7.1160   12.9380 N   0  0  0  0  0
   16.6310   -6.1880   12.6310 C   0  0  0  0  0
   17.1720   -4.7810   13.0100 C   0  0  0  0  0
   17.8540   -4.5720   14.0370 O   0  0  0  0  0
   15.3750   -6.5040   13.4800 C   0  0  0  0  0
   15.7050   -6.3960   14.8650 O   0  0  0  0  0
   14.8000   -7.8820   13.1840 C   0  0  0  0  0
   16.6640   -3.6760   12.2920 N   0  0  0  0  0
   16.0810   -3.8150   10.9600 C   0  0  0  0  0
   17.2910   -3.8480   10.0190 C   0  0  0  0  0
   17.0650   -3.3360    8.6940 C   0  0  0  0  0
   18.3400   -3.4950    7.8570 C   0  0  0  0  0
   18.0560   -3.0780    6.5110 N   0  3  0  0  0
   16.9830   -2.3370   12.7460 C   0  0  0  0  0
   16.0320   -1.8120   13.7950 C   0  0  0  0  0
   15.4620   -0.7200   13.6420 O   0  0  0  0  0
   15.8500   -2.5860   14.9230 N   0  0  0  0  0
   15.0780   -2.0540   16.0040 C   0  0  0  0  0
   15.9840   -1.4860   17.0780 C   0  0  0  0  0
   17.2160   -1.6290   17.0030 O   0  0  0  0  0
   14.1810   -3.1700   16.5060 C   0  0  0  0  0
   14.9400   -4.3510   16.7250 O   0  0  0  0  0
   15.4020   -0.7950   18.0570 N   0  0  0  0  0
   16.1920   -0.2690   19.2160 C   0  0  0  0  0
   15.7060   -0.9930   20.4280 C   0  0  0  0  0
   14.5890   -0.7300   20.8970 O   0  0  0  0  0
   16.0860    1.2490   19.3850 C   0  0  0  0  0
   16.6520    1.9390   18.1180 C   0  0  0  0  0
   16.8010    1.6540   20.6870 C   0  0  0  0  0
   16.3840    3.4350   18.0480 C   0  0  0  0  0
   16.4900   -1.9720   20.9160 N   0  0  0  0  0
   17.7590   -2.5000   20.4390 C   0  0  0  0  0
   17.5800   -3.4550   19.2570 C   0  0  0  0  0
   16.4690   -4.0710   19.0550 O   0  0  0  0  0
   18.3380   -3.2160   21.6630 C   0  0  0  0  0
   17.1510   -3.5620   22.4910 C   0  0  0  0  0
   16.0440   -2.6170   22.1520 C   0  0  0  0  0
   18.6520   -3.6210   18.4660 N   0  0  0  0  0
   18.5410   -4.6140   17.4270 C   0  0  0  0  0
   18.2630   -6.0380   17.9200 C   0  0  0  0  0
   18.7020   -6.4460   19.0350 O   0  0  0  0  0
   19.9160   -4.6020   16.7520 C   0  0  0  0  0
   20.6290   -3.4050   17.2240 C   0  0  0  0  0
   19.9940   -3.0060   18.5250 C   0  0  0  0  0
   17.5830   -6.8010   17.0730 N   0  0  0  0  0
   17.3930   -8.2260   17.3440 C   0  0  0  0  0
   18.2760   -8.9260   16.3430 C   0  0  0  0  0
   18.0640   -8.8210   15.1040 O   0  0  0  0  0
   15.9460   -8.7100   17.1960 C   0  0  0  0  0
   15.0250   -7.9780   18.1780 C   0  0  0  0  0
   15.8910  -10.2060   17.4420 C   0  0  0  0  0
   13.5250   -8.0120   17.8570 C   0  0  0  0  0
   19.2890   -9.6310   16.8350 N   0  0  0  0  0
   20.2410  -10.2480   15.9330 C   0  0  0  0  0
   20.2920  -11.7480   16.1260 C   0  0  0  0  0
   19.8300  -12.2990   17.1440 O   0  0  0  0  0
   21.6040   -9.6960   16.1350 C   0  0  0  0  0
   21.8540   -7.9560   16.0730 S   0  0  0  0  0
   20.8710  -12.4050   15.1380 N   0  0  0  0  0
   20.8010  -13.8630   14.9950 C   0  0  0  0  0
   22.1540  -14.3930   14.5320 C   0  0  0  0  0
   22.6686  -13.9366   13.4763 O   0  0  0  0  0
   19.7450  -14.2120   13.9440 C   0  0  0  0  0
   18.4100  -13.5710   14.1880 C   0  0  0  0  0
   17.4430  -14.2090   14.9470 C   0  0  0  0  0
   18.0930  -12.3280   13.6070 C   0  0  0  0  0
   16.1930  -13.6160   15.1360 C   0  0  0  0  0
   16.8520  -11.7290   13.7810 C   0  0  0  0  0
   15.9050  -12.3750   14.5680 C   0  0  0  0  0
   22.7517  -15.2792   15.1991 O   0  0  0  0  0
   27.0342   -8.8205   12.0962 H   0  0  0  0  0
   26.1938   -8.3043   10.7531 H   0  0  0  0  0
   25.6069   -7.9801   12.2786 H   0  0  0  0  0
   25.2525  -10.3022   12.7115 H   0  0  0  0  0
   25.8883  -10.6533   11.0588 H   0  0  0  0  0
   23.6433  -11.7958   11.1845 H   0  0  0  0  0
   21.7300  -10.1280    9.7132 H   0  0  0  0  0
   21.5945  -12.8884   10.8322 H   0  0  0  0  0
   21.7270  -12.3245    9.1003 H   0  0  0  0  0
   19.4681  -11.3718    9.3499 H   0  0  0  0  0
   19.3603  -12.1990   10.9472 H   0  0  0  0  0
   20.2387  -14.1121    9.0258 H   0  0  0  0  0
   18.8400  -13.2595    8.3294 H   0  0  0  0  0
   18.9015  -14.9080   10.7844 H   0  0  0  0  0
   15.4286  -13.3515    9.3785 H   0  0  0  0  0
   16.9387  -12.8059    8.6415 H   0  0  0  0  0
   17.0018  -15.5006   11.6662 H   0  0  0  0  0
   20.6165   -8.5481   10.6333 H   0  0  0  0  0
   19.3870   -9.0305   13.2812 H   0  0  0  0  0
   20.1755   -6.8997   14.1296 H   0  0  0  0  0
   21.1263   -6.6687   12.5142 H   0  0  0  0  0
   17.7401   -7.5344   13.8675 H   0  0  0  0  0
   16.3429   -6.2519   11.5817 H   0  0  0  0  0
   14.6049   -5.7790   13.2166 H   0  0  0  0  0
   14.9281   -6.5914   15.3941 H   0  0  0  0  0
   14.5171   -7.9381   12.1329 H   0  0  0  0  0
   15.5510   -8.6418   13.4005 H   0  0  0  0  0
   13.9217   -8.0494   13.8074 H   0  0  0  0  0
   15.3989   -2.9984   10.7232 H   0  0  0  0  0
   15.4678   -4.7118   10.8718 H   0  0  0  0  0
   17.5627   -4.8971    9.9023 H   0  0  0  0  0
   18.0508   -3.2103   10.4708 H   0  0  0  0  0
   16.8002   -2.2803    8.7538 H   0  0  0  0  0
   16.2523   -3.8906    8.2250 H   0  0  0  0  0
   18.6626   -4.5361    7.8640 H   0  0  0  0  0
   19.1390   -2.8831    8.2757 H   0  0  0  0  0
   18.8959   -3.1781    5.9410 H   0  0  0  0  0
   17.3113   -3.6592    6.1263 H   0  0  0  0  0
   17.7600   -2.1019    6.5140 H   0  0  0  0  0
   16.9159   -1.6745   11.8830 H   0  0  0  0  0
   17.9764   -2.3714   13.1932 H   0  0  0  0  0
   16.2578   -3.5189   14.9849 H   0  0  0  0  0
   14.4559   -1.2195   15.6804 H   0  0  0  0  0
   13.4135   -3.3733   15.7591 H   0  0  0  0  0
   13.7218   -2.8625   17.4455 H   0  0  0  0  0
   14.3609   -5.0480   17.0420 H   0  0  0  0  0
   14.3979   -0.6205   18.0166 H   0  0  0  0  0
   17.2535   -0.4480   19.0451 H   0  0  0  0  0
   15.0503    1.5753   19.4798 H   0  0  0  0  0
   16.1602    1.4842   17.2581 H   0  0  0  0  0
   17.7338    1.8073   18.1370 H   0  0  0  0  0
   16.3267    1.1536   21.5312 H   0  0  0  0  0
   17.8491    1.3602   20.6309 H   0  0  0  0  0
   16.7316    2.7339   20.8173 H   0  0  0  0  0
   15.3083    3.6108   18.0543 H   0  0  0  0  0
   16.8386    3.9249   18.9090 H   0  0  0  0  0
   16.8138    3.8373   17.1306 H   0  0  0  0  0
   18.4154   -1.7175   20.0583 H   0  0  0  0  0
   19.0450   -2.5886   22.2058 H   0  0  0  0  0
   18.9126   -4.0995   21.3847 H   0  0  0  0  0
   17.3990   -3.4799   23.5492 H   0  0  0  0  0
   16.8409   -4.5868   22.2865 H   0  0  0  0  0
   15.0894   -3.1284   22.0283 H   0  0  0  0  0
   15.8591   -1.8966   22.9488 H   0  0  0  0  0
   17.6954   -4.3661   16.7854 H   0  0  0  0  0
   19.8084   -4.5791   15.6676 H   0  0  0  0  0
   20.4737   -5.5033   17.0064 H   0  0  0  0  0
   20.5571   -2.5984   16.4944 H   0  0  0  0  0
   21.6902   -3.6143   17.3590 H   0  0  0  0  0
   20.5678   -3.3445   19.3877 H   0  0  0  0  0
   19.9494   -1.9241   18.6502 H   0  0  0  0  0
   17.1897   -6.3904   16.2262 H   0  0  0  0  0
   17.6437   -8.4390   18.3832 H   0  0  0  0  0
   15.6013   -8.4934   16.1849 H   0  0  0  0  0
   15.3188   -6.9288   18.1453 H   0  0  0  0  0
   15.1417   -8.4823   19.1372 H   0  0  0  0  0
   16.5234  -10.7159   16.7153 H   0  0  0  0  0
   16.2473  -10.4206   18.4495 H   0  0  0  0  0
   14.8629  -10.5526   17.3373 H   0  0  0  0  0
   13.3525   -7.5525   16.8837 H   0  0  0  0  0
   13.1822   -9.0465   17.8377 H   0  0  0  0  0
   12.9784   -7.4610   18.6223 H   0  0  0  0  0
   19.3963   -9.7376   17.8437 H   0  0  0  0  0
   19.9037  -10.0267   14.9204 H   0  0  0  0  0
   22.1870  -10.0885   15.3018 H   0  0  0  0  0
   21.8670   -9.9764   17.1549 H   0  0  0  0  0
   21.3919  -11.8732   14.4408 H   0  0  0  0  0
   20.5384  -14.3120   15.9529 H   0  0  0  0  0
   19.5977  -15.2915   13.9782 H   0  0  0  0  0
   20.1097  -13.8467   12.9840 H   0  0  0  0  0
   17.6585  -15.1775   15.3984 H   0  0  0  0  0
   18.8445  -11.8204   13.0023 H   0  0  0  0  0
   15.4366  -14.1267   15.7319 H   0  0  0  0  0
   16.6251  -10.7724   13.3104 H   0  0  0  0  0
   14.9345  -11.9101   14.7416 H   0  0  0  0  0
   22.2236  -15.5111   15.9665 H   0  0  0  0  0
  1  2  1  0  0  0
  2  3  1  0  0  0
  3  4  2  0  0  0
  3  5  1  0  0  0
  5  6  1  0  0  0
  6  7  1  0  0  0
  6  9  1  0  0  0
  7  8  2  0  0  0
  7 16  1  0  0  0
  9 10  1  0  0  0
 10 11  1  0  0  0
 11 12  1  0  0  0
 12 13  1  0  0  0
 13 14  1  0  0  0
 13 15  2  0  0  0
 16 17  1  0  0  0
 17 18  1  0  0  0
 17 20  1  0  0  0
 18 19  2  0  0  0
 18 22  1  0  0  0
 20 21  1  0  0  0
 21 79  1  0  0  0
 22 23  1  0  0  0
 23 24  1  0  0  0
 23 26  1  0  0  0
 24 25  2  0  0  0
 24 29  1  0  0  0
 26 27  1  0  0  0
 26 28  1  0  0  0
 29 30  1  0  0  0
 29 35  1  0  0  0
 30 31  1  0  0  0
 31 32  1  0  0  0
 32 33  1  0  0  0
 33 34  1  0  0  0
 35 36  1  0  0  0
 36 37  2  0  0  0
 36 38  1  0  0  0
 38 39  1  0  0  0
 39 40  1  0  0  0
 39 42  1  0  0  0
 40 41  2  0  0  0
 40 44  1  0  0  0
 42 43  1  0  0  0
 44 45  1  0  0  0
 45 46  1  0  0  0
 45 48  1  0  0  0
 46 47  2  0  0  0
 46 52  1  0  0  0
 48 49  1  0  0  0
 48 50  1  0  0  0
 49 51  1  0  0  0
 52 53  1  0  0  0
 52 58  1  0  0  0
 53 54  1  0  0  0
 53 56  1  0  0  0
 54 55  2  0  0  0
 54 59  1  0  0  0
 56 57  1  0  0  0
 57 58  1  0  0  0
 59 60  1  0  0  0
 59 65  1  0  0  0
 60 61  1  0  0  0
 60 63  1  0  0  0
 61 62  2  0  0  0
 61 66  1  0  0  0
 63 64  1  0  0  0
 64 65  1  0  0  0
 66 67  1  0  0  0
 67 68  1  0  0  0
 67 70  1  0  0  0
 68 69  2  0  0  0
 68 74  1  0  0  0
 70 71  1  0  0  0
 70 72  1  0  0  0
 71 73  1  0  0  0
 74 75  1  0  0  0
 75 76  1  0  0  0
 75 78  1  0  0  0
 76 77  2  0  0  0
 76 80  1  0  0  0
 78 79  1  0  0  0
 80 81  1  0  0  0
 81 82  1  0  0  0
 81 84  1  0  0  0
 82 83  2  0  0  0
 84 85  1  0  0  0
 85 86  4  0  0  0
 85 87  4  0  0  0
 86 88  4  0  0  0
 87 89  4  0  0  0
 88 90  4  0  0  0
 89 90  4  0  0  0
 82 91  1  0  0  0
  1 92  1  0  0  0
  1 93  1  0  0  0
  1 94  1  0  0  0
  2 95  1  0  0  0
  2 96  1  0  0  0
  5 97  1  0  0  0
  6 98  1  0  0  0
  9 99  1  0  0  0
  9100  1  0  0  0
 10101  1  0  0  0
 10102  1  0  0  0
 11103  1  0  0  0
 11104  1  0  0  0
 12105  1  0  0  0
 14106  1  0  0  0
 14107  1  0  0  0
 15108  1  0  0  0
 16109  1  0  0  0
 17110  1  0  0  0
 20111  1  0  0  0
 20112  1  0  0  0
 22113  1  0  0  0
 23114  1  0  0  0
 26115  1  0  0  0
 27116  1  0  0  0
 28117  1  0  0  0
 28118  1  0  0  0
 28119  1  0  0  0
 30120  1  0  0  0
 30121  1  0  0  0
 31122  1  0  0  0
 31123  1  0  0  0
 32124  1  0  0  0
 32125  1  0  0  0
 33126  1  0  0  0
 33127  1  0  0  0
 34128  1  0  0  0
 34129  1  0  0  0
 34130  1  0  0  0
 35131  1  0  0  0
 35132  1  0  0  0
 38133  1  0  0  0
 39134  1  0  0  0
 42135  1  0  0  0
 42136  1  0  0  0
 43137  1  0  0  0
 44138  1  0  0  0
 45139  1  0  0  0
 48140  1  0  0  0
 49141  1  0  0  0
 49142  1  0  0  0
 50143  1  0  0  0
 50144  1  0  0  0
 50145  1  0  0  0
 51146  1  0  0  0
 51147  1  0  0  0
 51148  1  0  0  0
 53149  1  0  0  0
 56150  1  0  0  0
 56151  1  0  0  0
 57152  1  0  0  0
 57153  1  0  0  0
 58154  1  0  0  0
 58155  1  0  0  0
 60156  1  0  0  0
 63157  1  0  0  0
 63158  1  0  0  0
 64159  1  0  0  0
 64160  1  0  0  0
 65161  1  0  0  0
 65162  1  0  0  0
 66163  1  0  0  0
 67164  1  0  0  0
 70165  1  0  0  0
 71166  1  0  0  0
 71167  1  0  0  0
 72168  1  0  0  0
 72169  1  0  0  0
 72170  1  0  0  0
 73171  1  0  0  0
 73172  1  0  0  0
 73173  1  0  0  0
 74174  1  0  0  0
 75175  1  0  0  0
 78176  1  0  0  0
 78177  1  0  0  0
 80178  1  0  0  0
 81179  1  0  0  0
 84180  1  0  0  0
 84181  1  0  0  0
 86182  1  0  0  0
 87183  1  0  0  0
 88184  1  0  0  0
 89185  1  0  0  0
 90186  1  0  0  0
 91187  1  0  0  0
M  END
$$$$
