4ipi_ligand
  -I-interpret- 

 15 14  0  0  0  0  0  0  0  0999 V2000
   95.6610  -20.8910   53.0380 C   0  0  0  0  0
   94.6900  -20.1080   52.8650 O   0  0  0  0  0
   95.7550  -21.5130   54.1160 O   0  0  0  0  0
   96.7200  -21.0920   51.9920 C   0  0  0  0  0
   96.5730  -20.1780   50.9280 O   0  0  0  0  0
   98.1110  -20.9690   52.6210 C   0  0  0  0  0
   98.2670  -19.6880   53.4070 C   0  0  0  0  0
   99.3170  -19.4570   54.0610 O   0  0  0  0  0
   97.3480  -18.8430   53.4240 O   0  0  0  0  0
   94.7549  -19.7068   51.9953 H   0  0  0  0  0
   96.6049  -22.0952   51.5816 H   0  0  0  0  0
   95.6965  -20.2701   50.5473 H   0  0  0  0  0
   98.8486  -20.9678   51.8184 H   0  0  0  0  0
   98.2509  -21.8067   53.3042 H   0  0  0  0  0
   99.9276  -20.1899   53.9532 H   0  0  0  0  0
  1  2  1  0  0  0
  1  3  2  0  0  0
  1  4  1  0  0  0
  4  5  1  0  0  0
  4  6  1  0  0  0
  6  7  1  0  0  0
  7  8  1  0  0  0
  7  9  2  0  0  0
  2 10  1  0  0  0
  4 11  1  0  0  0
  5 12  1  0  0  0
  6 13  1  0  0  0
  6 14  1  0  0  0
  8 15  1  0  0  0
M  END
$$$$
