4hy4_ligand
  -I-interpret- 

 85 89  0  0  0  0  0  0  0  0999 V2000
   23.0060   -4.6830   -9.6420 N   0  3  0  0  0
   24.4500   -4.5360   -9.3930 C   0  0  0  0  0
   22.6160   -6.0490  -10.0410 C   0  0  0  0  0
   21.0900   -6.1960   -9.9970 C   0  0  0  0  0
   23.1040   -6.3560  -11.4330 C   0  0  0  0  0
   23.4170   -5.4390  -12.1780 O   0  0  0  0  0
   23.2020   -7.6530  -11.7760 N   0  0  0  0  0
   23.6430   -8.0910  -13.1150 C   0  0  0  0  0
   22.5430   -8.9690  -13.6820 C   0  0  0  0  0
   21.7110   -9.4540  -12.9200 O   0  0  0  0  0
   24.9740   -8.8740  -13.0600 C   0  0  0  0  0
   24.8230  -10.2130  -12.3080 C   0  0  0  0  0
   26.1630  -10.9650  -12.2280 C   0  0  0  0  0
   27.1990  -10.0520  -11.5750 C   0  0  0  0  0
   27.4120   -8.7920  -12.4230 C   0  0  0  0  0
   26.0910   -8.0110  -12.4420 C   0  0  0  0  0
   22.4860   -9.2290  -15.0130 N   0  0  0  0  0
   23.5460   -8.7630  -15.9540 C   0  0  0  0  0
   22.9340   -8.4860  -17.3150 C   0  0  0  0  0
   23.9490   -8.3130  -18.4460 C   0  0  0  0  0
   23.1000   -8.5750  -19.7130 C   0  0  0  0  0
   21.8510   -9.3310  -19.1900 C   0  0  0  0  0
   22.1650   -9.6680  -17.7820 N   0  3  0  0  0
   20.9950   -9.9020  -16.9530 C   0  0  0  0  0
   21.4480  -10.1490  -15.4810 C   0  0  0  0  0
   21.9500  -11.5540  -15.2250 C   0  0  0  0  0
   23.1370  -11.8080  -15.0190 O   0  0  0  0  0
   20.9970  -12.5070  -15.1740 N   0  0  0  0  0
   21.2820  -13.9160  -14.8930 C   0  0  0  0  0
   21.7370  -14.6430  -16.1710 C   0  0  0  0  0
   20.5390  -15.1450  -16.9800 C   0  0  0  0  0
   19.7640  -16.1770  -16.1430 C   0  0  0  0  0
   19.3520  -15.5670  -14.8110 C   0  0  0  0  0
   18.2380  -16.0930  -14.1550 C   0  0  0  0  0
   17.8210  -15.5670  -12.9410 C   0  0  0  0  0
   18.5230  -14.5010  -12.3800 C   0  0  0  0  0
   19.6350  -13.9820  -13.0230 C   0  0  0  0  0
   20.0650  -14.5250  -14.2370 C   0  0  0  0  0
   22.7611   -4.0570  -10.4091 H   0  0  0  0  0
   22.5204   -4.4666   -8.7715 H   0  0  0  0  0
   24.7495   -5.2101   -8.5905 H   0  0  0  0  0
   25.0008   -4.7823  -10.3007 H   0  0  0  0  0
   24.6647   -3.5071   -9.1041 H   0  0  0  0  0
   23.0714   -6.7500   -9.3415 H   0  0  0  0  0
   20.6387   -5.5008  -10.7049 H   0  0  0  0  0
   20.8168   -7.2169  -10.2640 H   0  0  0  0  0
   20.7338   -5.9745   -8.9909 H   0  0  0  0  0
   22.9620   -8.3622  -11.0832 H   0  0  0  0  0
   23.8224   -7.2191  -13.7440 H   0  0  0  0  0
   25.2558   -9.1134  -14.0854 H   0  0  0  0  0
   24.1084  -10.8347  -12.8474 H   0  0  0  0  0
   24.4816  -10.0044  -11.2941 H   0  0  0  0  0
   26.4924  -11.2419  -13.2294 H   0  0  0  0  0
   26.0435  -11.8723  -11.6359 H   0  0  0  0  0
   28.1441  -10.5889  -11.4936 H   0  0  0  0  0
   26.8418   -9.7591  -10.5877 H   0  0  0  0  0
   27.7060   -9.0633  -13.4369 H   0  0  0  0  0
   28.2076   -8.1799  -11.9983 H   0  0  0  0  0
   25.8162   -7.7484  -11.4204 H   0  0  0  0  0
   26.2178   -7.1085  -13.0399 H   0  0  0  0  0
   24.3090   -9.5354  -16.0508 H   0  0  0  0  0
   23.9969   -7.8491  -15.5672 H   0  0  0  0  0
   22.3566   -7.5764  -17.1498 H   0  0  0  0  0
   24.8000   -8.9885  -18.3588 H   0  0  0  0  0
   24.4193   -7.3297  -18.4468 H   0  0  0  0  0
   23.6455   -9.1522  -20.4595 H   0  0  0  0  0
   22.8344   -7.6509  -20.2265 H   0  0  0  0  0
   21.6431  -10.2229  -19.7810 H   0  0  0  0  0
   20.9500   -8.7225  -19.2673 H   0  0  0  0  0
   22.6753  -10.5486  -17.7151 H   0  0  0  0  0
   20.4559  -10.7752  -17.3205 H   0  0  0  0  0
   20.3398   -9.0318  -16.9922 H   0  0  0  0  0
   20.5278   -9.9757  -14.9231 H   0  0  0  0  0
   20.0286  -12.2326  -15.3395 H   0  0  0  0  0
   22.1152  -14.0183  -14.1977 H   0  0  0  0  0
   22.3467  -15.5000  -15.8848 H   0  0  0  0  0
   22.3029  -13.9433  -16.7860 H   0  0  0  0  0
   20.8878  -15.6085  -17.9028 H   0  0  0  0  0
   19.8860  -14.3078  -17.2265 H   0  0  0  0  0
   20.4031  -17.0405  -15.9585 H   0  0  0  0  0
   18.8708  -16.4817  -16.6884 H   0  0  0  0  0
   17.6911  -16.9241  -14.6003 H   0  0  0  0  0
   16.9526  -15.9832  -12.4304 H   0  0  0  0  0
   18.1957  -14.0743  -11.4319 H   0  0  0  0  0
   20.1770  -13.1464  -12.5801 H   0  0  0  0  0
  1  2  1  0  0  0
  1  3  1  0  0  0
  3  4  1  0  0  0
  3  5  1  0  0  0
  5  6  2  0  0  0
  5  7  1  0  0  0
  7  8  1  0  0  0
  8  9  1  0  0  0
  8 11  1  0  0  0
  9 10  2  0  0  0
  9 17  1  0  0  0
 11 12  1  0  0  0
 11 16  1  0  0  0
 12 13  1  0  0  0
 13 14  1  0  0  0
 14 15  1  0  0  0
 15 16  1  0  0  0
 17 18  1  0  0  0
 17 25  1  0  0  0
 18 19  1  0  0  0
 19 20  1  0  0  0
 19 23  1  0  0  0
 20 21  1  0  0  0
 21 22  1  0  0  0
 22 23  1  0  0  0
 23 24  1  0  0  0
 24 25  1  0  0  0
 25 26  1  0  0  0
 26 27  2  0  0  0
 26 28  1  0  0  0
 28 29  1  0  0  0
 29 30  1  0  0  0
 29 38  1  0  0  0
 30 31  1  0  0  0
 31 32  1  0  0  0
 32 33  1  0  0  0
 33 34  4  0  0  0
 33 38  4  0  0  0
 34 35  4  0  0  0
 35 36  4  0  0  0
 36 37  4  0  0  0
 37 38  4  0  0  0
  1 39  1  0  0  0
  1 40  1  0  0  0
  2 41  1  0  0  0
  2 42  1  0  0  0
  2 43  1  0  0  0
  3 44  1  0  0  0
  4 45  1  0  0  0
  4 46  1  0  0  0
  4 47  1  0  0  0
  7 48  1  0  0  0
  8 49  1  0  0  0
 11 50  1  0  0  0
 12 51  1  0  0  0
 12 52  1  0  0  0
 13 53  1  0  0  0
 13 54  1  0  0  0
 14 55  1  0  0  0
 14 56  1  0  0  0
 15 57  1  0  0  0
 15 58  1  0  0  0
 16 59  1  0  0  0
 16 60  1  0  0  0
 18 61  1  0  0  0
 18 62  1  0  0  0
 19 63  1  0  0  0
 20 64  1  0  0  0
 20 65  1  0  0  0
 21 66  1  0  0  0
 21 67  1  0  0  0
 22 68  1  0  0  0
 22 69  1  0  0  0
 23 70  1  0  0  0
 24 71  1  0  0  0
 24 72  1  0  0  0
 25 73  1  0  0  0
 28 74  1  0  0  0
 29 75  1  0  0  0
 30 76  1  0  0  0
 30 77  1  0  0  0
 31 78  1  0  0  0
 31 79  1  0  0  0
 32 80  1  0  0  0
 32 81  1  0  0  0
 34 82  1  0  0  0
 35 83  1  0  0  0
 36 84  1  0  0  0
 37 85  1  0  0  0
M  END
$$$$
