3u10_ligand
  -I-interpret- 

 34 37  0  0  0  0  0  0  0  0999 V2000
   -7.2770  -23.1400   -7.4720 P   0  0  0  0  0
   -7.9230  -23.0200   -6.0810 O   0  0  0  0  0
   -6.6670  -24.4770   -7.6230 O   0  0  0  0  0
   -8.3270  -22.8030   -8.6170 O   0  0  0  0  0
   -8.9090  -21.5190   -8.7910 C   0  0  0  0  0
   -7.7440  -20.5820   -8.8650 C   0  0  0  0  0
   -8.1070  -19.2240   -8.8560 O   0  0  0  0  0
   -6.8420  -20.6900   -7.6540 C   0  0  0  0  0
   -6.2370  -21.9340   -7.5680 O   0  0  0  0  0
   -5.8980  -19.5640   -7.9220 C   0  0  0  0  0
   -4.7130  -19.9300   -8.6620 O   0  0  0  0  0
   -6.8280  -18.5710   -8.6370 C   0  0  0  0  0
   -6.9720  -17.4850   -7.6490 N   0  0  0  0  0
   -7.5970  -17.6290   -6.4530 C   0  0  0  0  0
   -7.5580  -16.4690   -5.7530 N   0  0  0  0  0
   -6.9000  -15.5550   -6.5060 C   0  0  0  0  0
   -6.5300  -14.1350   -6.3500 C   0  0  0  0  0
   -6.8380  -13.4320   -5.2140 N   0  0  0  0  0
   -5.8860  -13.5600   -7.4070 N   0  0  0  0  0
   -5.5600  -14.2340   -8.5480 C   0  0  0  0  0
   -5.8590  -15.5400   -8.7220 N   0  0  0  0  0
   -6.5190  -16.2320   -7.7600 C   0  0  0  0  0
   -8.3181  -22.1502   -5.9869 H   0  0  0  0  0
   -9.5850  -21.2644   -7.9747 H   0  0  0  0  0
   -9.5279  -21.4706   -9.6869 H   0  0  0  0  0
   -7.2634  -20.8751   -9.7984 H   0  0  0  0  0
   -7.3401  -20.6138   -6.6875 H   0  0  0  0  0
   -5.4299  -19.1581   -7.0252 H   0  0  0  0  0
   -4.1642  -19.1528   -8.7900 H   0  0  0  0  0
   -6.4625  -18.2187   -9.6016 H   0  0  0  0  0
   -8.0652  -18.5494   -6.1039 H   0  0  0  0  0
   -7.3351  -13.8898   -4.4500 H   0  0  0  0  0
   -6.5701  -12.4512   -5.1329 H   0  0  0  0  0
   -5.0414  -13.7012   -9.3451 H   0  0  0  0  0
  1  2  1  0  0  0
  1  3  2  0  0  0
  1  4  1  0  0  0
  1  9  1  0  0  0
  4  5  1  0  0  0
  5  6  1  0  0  0
  6  7  1  0  0  0
  6  8  1  0  0  0
  7 12  1  0  0  0
  8  9  1  0  0  0
  8 10  1  0  0  0
 10 11  1  0  0  0
 10 12  1  0  0  0
 12 13  1  0  0  0
 13 14  4  0  0  0
 13 22  4  0  0  0
 14 15  4  0  0  0
 15 16  4  0  0  0
 16 17  4  0  0  0
 16 22  4  0  0  0
 17 18  1  0  0  0
 17 19  4  0  0  0
 19 20  4  0  0  0
 20 21  4  0  0  0
 21 22  4  0  0  0
  2 23  1  0  0  0
  5 24  1  0  0  0
  5 25  1  0  0  0
  6 26  1  0  0  0
  8 27  1  0  0  0
 10 28  1  0  0  0
 11 29  1  0  0  0
 12 30  1  0  0  0
 14 31  1  0  0  0
 18 32  1  0  0  0
 18 33  1  0  0  0
 20 34  1  0  0  0
M  END
$$$$
