4f08_ligand
  -I-interpret- 

 33 36  0  0  0  0  0  0  0  0999 V2000
   10.3890  -53.7910  -23.2710 C   0  0  0  0  0
   11.0980  -53.0440  -24.0350 N   0  0  0  0  0
   11.2200  -51.8420  -23.4720 C   0  0  0  0  0
   11.8720  -50.6940  -23.8730 C   0  0  0  0  0
   11.8450  -49.6350  -23.1330 N   0  0  0  0  0
   11.2050  -49.5860  -21.9890 C   0  0  0  0  0
   10.5180  -50.6970  -21.5090 C   0  0  0  0  0
   10.5210  -51.8670  -22.2650 C   0  0  0  0  0
   10.0020  -53.1230  -22.1720 N   0  0  0  0  0
    9.1960  -53.7450  -21.1370 C   0  0  0  0  0
    7.7160  -53.4350  -21.1330 C   0  0  0  0  0
    7.0830  -54.5680  -20.3380 C   0  0  0  0  0
    7.6480  -54.6270  -18.9930 N   0  3  0  0  0
    9.0910  -54.8460  -18.9870 C   0  0  0  0  0
    9.7580  -53.7040  -19.7330 C   0  0  0  0  0
    9.9440  -50.2830  -20.2420 C   0  0  0  0  0
   10.2970  -49.0140  -20.0490 C   0  0  0  0  0
   11.0550  -48.5850  -21.0830 N   0  0  0  0  0
   10.1345  -54.8291  -23.4849 H   0  0  0  0  0
   12.4129  -50.6803  -24.8193 H   0  0  0  0  0
    9.2774  -54.7773  -21.4774 H   0  0  0  0  0
    7.3118  -53.3734  -22.1434 H   0  0  0  0  0
    7.5067  -52.4618  -20.6891 H   0  0  0  0  0
    7.2810  -55.5113  -20.8469 H   0  0  0  0  0
    6.0099  -54.3920  -20.2638 H   0  0  0  0  0
    7.2134  -55.4124  -18.5085 H   0  0  0  0  0
    7.4689  -53.7298  -18.5420 H   0  0  0  0  0
    9.3244  -55.7932  -19.4733 H   0  0  0  0  0
    9.4564  -54.8822  -17.9607 H   0  0  0  0  0
    9.5572  -52.7461  -19.2533 H   0  0  0  0  0
   10.8426  -53.8126  -19.7367 H   0  0  0  0  0
    9.3381  -50.8956  -19.5743 H   0  0  0  0  0
   10.0166  -48.4106  -19.1857 H   0  0  0  0  0
  1  2  4  0  0  0
  1  9  4  0  0  0
  2  3  4  0  0  0
  3  4  4  0  0  0
  3  8  4  0  0  0
  4  5  4  0  0  0
  5  6  4  0  0  0
  6  7  4  0  0  0
  6 18  4  0  0  0
  7  8  4  0  0  0
  7 16  4  0  0  0
  8  9  4  0  0  0
  9 10  1  0  0  0
 10 11  1  0  0  0
 10 15  1  0  0  0
 11 12  1  0  0  0
 12 13  1  0  0  0
 13 14  1  0  0  0
 14 15  1  0  0  0
 16 17  4  0  0  0
 17 18  4  0  0  0
  1 19  1  0  0  0
  4 20  1  0  0  0
 10 21  1  0  0  0
 11 22  1  0  0  0
 11 23  1  0  0  0
 12 24  1  0  0  0
 12 25  1  0  0  0
 13 26  1  0  0  0
 13 27  1  0  0  0
 14 28  1  0  0  0
 14 29  1  0  0  0
 15 30  1  0  0  0
 15 31  1  0  0  0
 16 32  1  0  0  0
 17 33  1  0  0  0
M  END
$$$$
