2wxl_ligand
  -I-interpret- 

 51 55  0  0  0  0  0  0  0  0999 V2000
   -7.5110  -28.0780   25.9180 C   0  0  0  0  0
   -7.0300  -27.9800   27.3500 C   0  0  0  0  0
   -5.5830  -28.2150   27.5130 O   0  0  0  0  0
   -5.2460  -29.5300   27.1160 C   0  0  0  0  0
   -5.5840  -29.6670   25.6300 C   0  0  0  0  0
   -6.9920  -29.3460   25.3590 N   0  0  0  0  0
   -7.7880  -30.1570   24.5430 C   0  0  0  0  0
   -9.0290  -29.7930   24.1990 N   0  0  0  0  0
   -7.2810  -31.3140   24.0760 N   0  0  0  0  0
   -8.0340  -32.0800   23.2730 C   0  0  0  0  0
   -7.5150  -33.2950   22.8330 N   0  0  0  0  0
   -6.1660  -33.7130   23.2380 C   0  0  0  0  0
   -6.1750  -35.1530   23.7390 C   0  0  0  0  0
   -7.2780  -35.9880   23.2920 O   0  0  0  0  0
   -8.5400  -35.4890   22.7600 C   0  0  0  0  0
   -8.3580  -34.1780   22.0260 C   0  0  0  0  0
   -9.2780  -31.7070   22.9160 N   0  0  0  0  0
   -9.7640  -30.5370   23.3770 C   0  0  0  0  0
  -10.9950  -30.1820   23.0430 N   0  0  0  0  0
  -11.8090  -29.4450   23.7730 C   0  0  0  0  0
  -11.6630  -28.7950   24.9980 C   0  0  0  0  0
  -12.7350  -28.0540   25.4820 C   0  0  0  0  0
  -13.9300  -27.9690   24.7660 C   0  0  0  0  0
  -14.0570  -28.6190   23.5370 C   0  0  0  0  0
  -12.9940  -29.3580   23.0570 C   0  0  0  0  0
  -12.8620  -30.0320   21.9300 N   0  0  0  0  0
  -11.6590  -30.5610   21.9540 C   0  0  0  0  0
  -11.0970  -31.3580   20.8130 C   0  0  0  0  0
  -11.9900  -31.4910   19.8050 F   0  0  0  0  0
  -10.2510  -30.4460   20.2820 F   0  0  0  0  0
   -7.1504  -27.2296   25.3363 H   0  0  0  0  0
   -8.6002  -28.0629   25.8803 H   0  0  0  0  0
   -7.5494  -28.7508   27.9195 H   0  0  0  0  0
   -7.2336  -26.9650   27.6912 H   0  0  0  0  0
   -5.8063  -30.2588   27.7017 H   0  0  0  0  0
   -4.1852  -29.7170   27.2830 H   0  0  0  0  0
   -5.4044  -30.6998   25.3315 H   0  0  0  0  0
   -4.9599  -28.9699   25.0709 H   0  0  0  0  0
   -5.8224  -33.0625   24.0423 H   0  0  0  0  0
   -5.5024  -33.6442   22.3760 H   0  0  0  0  0
   -6.2608  -35.0947   24.8241 H   0  0  0  0  0
   -5.2687  -35.6147   23.3472 H   0  0  0  0  0
   -9.2231  -35.3244   23.5933 H   0  0  0  0  0
   -8.9317  -36.2247   22.0575 H   0  0  0  0  0
   -7.8840  -34.3589   21.0613 H   0  0  0  0  0
   -9.3288  -33.7106   21.8610 H   0  0  0  0  0
  -10.7326  -28.8661   25.5614 H   0  0  0  0  0
  -12.6409  -27.5320   26.4342 H   0  0  0  0  0
  -14.7651  -27.3945   25.1668 H   0  0  0  0  0
  -14.9817  -28.5442   22.9648 H   0  0  0  0  0
  -10.7373  -32.3319   21.1450 H   0  0  0  0  0
  1  2  1  0  0  0
  1  6  1  0  0  0
  2  3  1  0  0  0
  3  4  1  0  0  0
  4  5  1  0  0  0
  5  6  1  0  0  0
  6  7  1  0  0  0
  7  8  4  0  0  0
  7  9  4  0  0  0
  8 18  4  0  0  0
  9 10  4  0  0  0
 10 11  1  0  0  0
 10 17  4  0  0  0
 11 12  1  0  0  0
 11 16  1  0  0  0
 12 13  1  0  0  0
 13 14  1  0  0  0
 14 15  1  0  0  0
 15 16  1  0  0  0
 17 18  4  0  0  0
 18 19  1  0  0  0
 19 20  4  0  0  0
 19 27  4  0  0  0
 20 21  4  0  0  0
 20 25  4  0  0  0
 21 22  4  0  0  0
 22 23  4  0  0  0
 23 24  4  0  0  0
 24 25  4  0  0  0
 25 26  4  0  0  0
 26 27  4  0  0  0
 27 28  1  0  0  0
 28 29  1  0  0  0
 28 30  1  0  0  0
  1 31  1  0  0  0
  1 32  1  0  0  0
  2 33  1  0  0  0
  2 34  1  0  0  0
  4 35  1  0  0  0
  4 36  1  0  0  0
  5 37  1  0  0  0
  5 38  1  0  0  0
 12 39  1  0  0  0
 12 40  1  0  0  0
 13 41  1  0  0  0
 13 42  1  0  0  0
 15 43  1  0  0  0
 15 44  1  0  0  0
 16 45  1  0  0  0
 16 46  1  0  0  0
 21 47  1  0  0  0
 22 48  1  0  0  0
 23 49  1  0  0  0
 24 50  1  0  0  0
 28 51  1  0  0  0
M  END
$$$$
