2xvd_ligand
  -I-interpret- 

 69 72  0  0  0  0  0  0  0  0999 V2000
    9.4220    5.6620   10.0960 C   0  0  0  0  0
    9.3460    5.6460   11.6120 C   0  0  0  0  0
    7.8960    5.6550   12.0780 C   0  0  0  0  0
   10.1490    4.5810   12.2350 N   0  0  0  0  0
   11.5570    4.7790   12.2250 C   0  0  0  0  0
   12.3610    3.6850   12.5100 C   0  0  0  0  0
   13.7070    3.8980   12.5000 C   0  0  0  0  0
   14.2340    5.1050   12.2260 N   0  0  0  0  0
   13.3990    6.1120   11.9600 C   0  0  0  0  0
   14.0050    7.3550   11.6870 N   0  0  0  0  0
   13.3490    8.5200   11.2320 C   0  0  0  0  0
   14.0770    9.6960   11.2580 C   0  0  0  0  0
   13.5360   10.8980   10.8320 C   0  0  0  0  0
   12.2370   10.9080   10.3720 C   0  0  0  0  0
   11.5080    9.7430   10.3410 C   0  0  0  0  0
   12.0410    8.5380   10.7630 C   0  0  0  0  0
    9.8340    9.8680    9.7150 S   0  0  0  0  0
    9.5170   11.2920    9.6360 O   0  0  0  0  0
    9.8070    9.0460    8.5010 O   0  0  0  0  0
    8.8000    9.1190   10.9360 C   0  0  0  0  0
   14.2400   12.1100   10.8490 N   0  0  0  0  0
   15.6390   11.9890   11.1620 C   0  0  0  0  0
   16.1790   13.3930   11.3150 C   0  0  0  0  0
   15.8920   14.1100   10.1080 O   0  0  0  0  0
   14.4760   14.2820    9.9660 C   0  0  0  0  0
   13.9010   12.9190    9.6850 C   0  0  0  0  0
   12.0610    5.9950   11.9470 N   0  0  0  0  0
    9.5240    3.3320   12.4340 C   0  0  0  0  0
    9.1100    2.5870   11.3410 C   0  0  0  0  0
    8.4860    1.3680   11.5030 C   0  0  0  0  0
    8.0420    0.6170   10.2800 C   0  0  0  0  0
    8.6610   -0.6650   10.2410 O   0  0  0  0  0
    8.2720    0.8710   12.7730 C   0  0  0  0  0
    8.6910    1.5920   13.8680 C   0  0  0  0  0
    9.3110    2.8190   13.7070 C   0  0  0  0  0
    9.7380    3.5730   14.9230 C   0  0  0  0  0
   10.4564    5.8124    9.7869 H   0  0  0  0  0
    9.0593    4.7113    9.7053 H   0  0  0  0  0
    8.8047    6.4737    9.7111 H   0  0  0  0  0
    9.8106    6.5674   11.9633 H   0  0  0  0  0
    7.4297    4.7018   11.8288 H   0  0  0  0  0
    7.8634    5.8058   13.1570 H   0  0  0  0  0
    7.3608    6.4638   11.5805 H   0  0  0  0  0
   11.9378    2.7051   12.7307 H   0  0  0  0  0
   14.3760    3.0662   12.7204 H   0  0  0  0  0
   15.0126    7.4192   11.8318 H   0  0  0  0  0
   15.1037    9.6763   11.6234 H   0  0  0  0  0
   11.7870   11.8409   10.0323 H   0  0  0  0  0
   11.4485    7.6237   10.7284 H   0  0  0  0  0
    8.9796    9.5914   11.9018 H   0  0  0  0  0
    7.7550    9.2496   10.6550 H   0  0  0  0  0
    9.0297    8.0555   11.0020 H   0  0  0  0  0
   16.1671   11.4561   10.3713 H   0  0  0  0  0
   15.7816   11.4182   12.0796 H   0  0  0  0  0
   17.2543   13.3664   11.4914 H   0  0  0  0  0
   15.7113   13.8863   12.1671 H   0  0  0  0  0
   14.2480   14.9745    9.1557 H   0  0  0  0  0
   14.0435   14.7070   10.8718 H   0  0  0  0  0
   12.8233   12.9633    9.5278 H   0  0  0  0  0
   14.3089   12.4931    8.7683 H   0  0  0  0  0
    9.2807    2.9715   10.3355 H   0  0  0  0  0
    8.3283    1.1795    9.3914 H   0  0  0  0  0
    6.9598    0.4908   10.3111 H   0  0  0  0  0
    8.3705   -1.1356    9.4563 H   0  0  0  0  0
    7.7731   -0.0887   12.9081 H   0  0  0  0  0
    8.5333    1.1935   14.8702 H   0  0  0  0  0
   10.8159    3.7316   14.8907 H   0  0  0  0  0
    9.2284    4.5362   14.9493 H   0  0  0  0  0
    9.4803    2.9997   15.8135 H   0  0  0  0  0
  1  2  1  0  0  0
  2  3  1  0  0  0
  2  4  1  0  0  0
  4  5  1  0  0  0
  4 28  1  0  0  0
  5  6  4  0  0  0
  5 27  4  0  0  0
  6  7  4  0  0  0
  7  8  4  0  0  0
  8  9  4  0  0  0
  9 10  1  0  0  0
  9 27  4  0  0  0
 10 11  1  0  0  0
 11 12  4  0  0  0
 11 16  4  0  0  0
 12 13  4  0  0  0
 13 14  4  0  0  0
 13 21  1  0  0  0
 14 15  4  0  0  0
 15 16  4  0  0  0
 15 17  1  0  0  0
 17 18  2  0  0  0
 17 19  2  0  0  0
 17 20  1  0  0  0
 21 22  1  0  0  0
 21 26  1  0  0  0
 22 23  1  0  0  0
 23 24  1  0  0  0
 24 25  1  0  0  0
 25 26  1  0  0  0
 28 29  4  0  0  0
 28 35  4  0  0  0
 29 30  4  0  0  0
 30 31  1  0  0  0
 30 33  4  0  0  0
 31 32  1  0  0  0
 33 34  4  0  0  0
 34 35  4  0  0  0
 35 36  1  0  0  0
  1 37  1  0  0  0
  1 38  1  0  0  0
  1 39  1  0  0  0
  2 40  1  0  0  0
  3 41  1  0  0  0
  3 42  1  0  0  0
  3 43  1  0  0  0
  6 44  1  0  0  0
  7 45  1  0  0  0
 10 46  1  0  0  0
 12 47  1  0  0  0
 14 48  1  0  0  0
 16 49  1  0  0  0
 20 50  1  0  0  0
 20 51  1  0  0  0
 20 52  1  0  0  0
 22 53  1  0  0  0
 22 54  1  0  0  0
 23 55  1  0  0  0
 23 56  1  0  0  0
 25 57  1  0  0  0
 25 58  1  0  0  0
 26 59  1  0  0  0
 26 60  1  0  0  0
 29 61  1  0  0  0
 31 62  1  0  0  0
 31 63  1  0  0  0
 32 64  1  0  0  0
 33 65  1  0  0  0
 34 66  1  0  0  0
 36 67  1  0  0  0
 36 68  1  0  0  0
 36 69  1  0  0  0
M  END
$$$$
