### 
### Created by X-TOOL on Mon Sep 10 21:13:19 2018
### 

@<TRIPOS>MOLECULE
4prb_ligand
  174   178     1     0     0
SMALL
GAST_HUCK


@<TRIPOS>ATOM
      1 N         -13.0500  -14.6930   36.6150 N.4       1 HIS         0.2390
      2 CA        -12.0300  -14.1830   37.5320 C.3       1 HIS         0.0710
      3 C         -10.6490  -14.5080   36.9700 C.2       1 HIS         0.2307
      4 O         -10.3870  -15.6390   36.5870 O.2       1 HIS        -0.3904
      5 CB        -12.1760  -14.8410   38.9080 C.3       1 HIS         0.0347
      6 CG        -11.4210  -14.1450   40.0020 C.2       1 HIS         0.0005
      7 ND1       -10.0440  -14.1310   40.0680 N.2       1 HIS        -0.3251
      8 CD2       -11.8560  -13.4510   41.0820 C.2       1 HIS         0.0293
      9 CE1        -9.6620  -13.4540   41.1370 C.2       1 HIS         0.0907
     10 NE2       -10.7420  -13.0340   41.7720 N.pl3     1 HIS        -0.2752
     11 N          -9.7620  -13.5100   36.9040 N.am      1 PRO        -0.2470
     12 CA         -8.4440  -13.7720   36.3180 C.3       1 PRO         0.1339
     13 C          -7.5670  -14.5950   37.2460 C.2       1 PRO         0.2041
     14 O          -7.8620  -14.6990   38.4360 O.2       1 PRO        -0.3944
     15 CB         -7.8480  -12.3630   36.1740 C.3       1 PRO        -0.0104
     16 CG         -8.5030  -11.5850   37.2590 C.3       1 PRO        -0.0281
     17 CD         -9.9200  -12.0990   37.3010 C.3       1 PRO         0.0371
     18 N          -6.5050  -15.1740   36.6980 N.am      1 VAL        -0.2635
     19 CA         -5.5250  -15.9000   37.4920 C.3       1 VAL         0.1332
     20 C          -4.6440  -14.8950   38.2230 C.2       1 VAL         0.2041
     21 O          -4.3610  -13.8140   37.7070 O.2       1 VAL        -0.3944
     22 CB         -4.6890  -16.8640   36.6170 C.3       1 VAL        -0.0063
     23 CG1        -3.7710  -16.0950   35.6330 C.3       1 VAL        -0.0584
     24 CG2        -3.8870  -17.8600   37.4970 C.3       1 VAL        -0.0584
     25 N          -4.2540  -15.2330   39.4460 N.am      1 ALA        -0.2640
     26 CA         -3.3440  -14.3930   40.2140 C.3       1 ALA         0.1282
     27 C          -1.9190  -14.8530   39.9600 C.2       1 ALA         0.2036
     28 O          -1.6110  -16.0420   40.0290 O.2       1 ALA        -0.3944
     29 CB         -3.6720  -14.4560   41.6990 C.3       1 ALA        -0.0244
     30 N          -1.0440  -13.9150   39.6360 N.am      1 GLU        -0.2636
     31 CA          0.3450  -14.2580   39.4270 C.3       1 GLU         0.1325
     32 C           1.0570  -14.3570   40.7750 C.2       1 GLU         0.2040
     33 O           0.6630  -13.6980   41.7380 O.2       1 GLU        -0.3944
     34 CB          1.0450  -13.2110   38.5500 C.3       1 GLU        -0.0008
     35 CG          0.3790  -12.9570   37.2020 C.3       1 GLU         0.0044
     36 CD          0.2760  -14.1940   36.3240 C.2       1 GLU         0.0350
     37 OE1         1.0770  -15.1410   36.4840 O.co2     1 GLU        -0.5690
     38 OE2        -0.6130  -14.2100   35.4480 O.co2     1 GLU        -0.5690
     39 N           2.0930  -15.1870   40.8240 N.am      1 ALA        -0.2640
     40 CA          2.9680  -15.2770   41.9870 C.3       1 ALA         0.1282
     41 C           3.8140  -14.0150   42.0510 C.2       1 ALA         0.2037
     42 O           4.0100  -13.3450   41.0420 O.2       1 ALA        -0.3944
     43 CB          3.8550  -16.5010   41.8880 C.3       1 ALA        -0.0244
     44 N           4.3100  -13.6810   43.2350 N.am      1 ASP        -0.2622
     45 CA          5.1770  -12.5160   43.3670 C.3       1 ASP         0.1423
     46 C           6.3760  -12.6260   42.4250 C.2       1 ASP         0.2057
     47 O           6.9100  -13.7160   42.2060 O.2       1 ASP        -0.3943
     48 CB          5.6420  -12.3400   44.8160 C.3       1 ASP         0.0406
     49 CG          4.4930  -12.0500   45.7630 C.2       1 ASP         0.0393
     50 OD1         3.4380  -11.5720   45.2920 O.co2     1 ASP        -0.5688
     51 OD2         4.6420  -12.2980   46.9800 O.co2     1 ASP        -0.5688
     52 N           6.7670  -11.4950   41.8460 N.am      1 TYR        -0.2620
     53 CA          7.9710  -11.4190   41.0250 C.3       1 TYR         0.1390
     54 C           7.8520  -12.2040   39.7150 C.2       1 TYR         0.2059
     55 O           8.8620  -12.5740   39.1160 O.2       1 TYR        -0.3942
     56 CB          9.1800  -11.9010   41.8320 C.3       1 TYR         0.0163
     57 CG          9.1320  -11.4920   43.2900 C.ar      1 TYR        -0.0493
     58 CD1         8.7380  -10.2130   43.6610 C.ar      1 TYR        -0.0685
     59 CD2         9.4590  -12.3940   44.2940 C.ar      1 TYR        -0.0685
     60 CE1         8.6850   -9.8400   44.9900 C.ar      1 TYR        -0.0398
     61 CE2         9.4090  -12.0310   45.6230 C.ar      1 TYR        -0.0398
     62 CZ          9.0230  -10.7530   45.9660 C.ar      1 TYR         0.0805
     63 OH          8.9720  -10.3890   47.2920 O.3       1 TYR        -0.3376
     64 N           6.6180  -12.4560   39.2790 N.am      1 PHE        -0.2618
     65 CA          6.3710  -13.0990   37.9880 C.3       1 PHE         0.1404
     66 C           6.9390  -12.2210   36.8730 C.2       1 PHE         0.2060
     67 O           6.7260  -11.0110   36.8600 O.2       1 PHE        -0.3942
     68 CB          4.8590  -13.3580   37.7940 C.3       1 PHE         0.0214
     69 CG          4.4670  -13.7440   36.3850 C.ar      1 PHE        -0.0386
     70 CD1         3.7660  -12.8520   35.5770 C.ar      1 PHE        -0.0601
     71 CD2         4.7730  -15.0010   35.8800 C.ar      1 PHE        -0.0601
     72 CE1         3.3940  -13.2010   34.2840 C.ar      1 PHE        -0.0686
     73 CE2         4.4090  -15.3570   34.5820 C.ar      1 PHE        -0.0686
     74 CZ          3.7160  -14.4470   33.7840 C.ar      1 PHE        -0.0687
     75 N           7.6830  -12.8360   35.9630 N.am      1 GLU        -0.2635
     76 CA          8.2590  -12.1260   34.8340 C.3       1 GLU         0.1324
     77 C           8.5630  -13.0830   33.6960 C.2       1 GLU         0.2036
     78 O           8.7550  -14.2870   33.9060 O.2       1 GLU        -0.3944
     79 CB          9.5410  -11.3900   35.2530 C.3       1 GLU        -0.0008
     80 CG         10.7550  -12.3050   35.4550 C.3       1 GLU         0.0044
     81 CD         12.0390  -11.5150   35.7110 C.2       1 GLU         0.0350
     82 OE1        11.9430  -10.2920   35.9710 O.co2     1 GLU        -0.5690
     83 OE2        13.1390  -12.1110   35.6330 O.co2     1 GLU        -0.5690
     84 N           8.5360  -12.5620   32.4900 N.am      1 TYR        -0.2679
     85 CA          9.0110  -13.2440   31.3420 C.3       1 TYR         0.1025
     86 C          10.5600  -13.2420   31.3370 C.2       1 TYR         0.0619
     87 O          11.0970  -13.9500   30.5580 O.co2     1 TYR        -0.5665
     88 CB          8.4360  -12.6580   30.0240 C.3       1 TYR         0.0108
     89 CG          6.9270  -12.8360   29.7980 C.ar      1 TYR        -0.0499
     90 CD1         6.4230  -13.3910   28.6410 C.ar      1 TYR        -0.0686
     91 CD2         6.0340  -12.4080   30.7080 C.ar      1 TYR        -0.0686
     92 CE1         5.0790  -13.5460   28.4310 C.ar      1 TYR        -0.0398
     93 CE2         4.7000  -12.5460   30.5070 C.ar      1 TYR        -0.0398
     94 CZ          4.2100  -13.1130   29.3810 C.ar      1 TYR         0.0805
     95 OH          2.8860  -13.2190   29.2300 O.3       1 TYR        -0.3376
     96 OXT        11.1890  -12.5230   32.1190 O.co2     1 TYR        -0.5665
     97 H         -13.9656  -14.4819   36.9799 H         1 HIS         0.2016
     98 H         -12.9480  -15.6914   36.5205 H         1 HIS         0.2016
     99 H         -12.9391  -14.2571   35.7130 H         1 HIS         0.2016
    100 H         -12.1415  -13.0934   37.6339 H         1 HIS         0.1116
    101 H         -11.8075  -15.8750   38.8375 H         1 HIS         0.0453
    102 H         -13.2429  -14.8494   39.1757 H         1 HIS         0.0453
    103 H         -12.8933  -13.2595   41.3526 H         1 HIS         0.0729
    104 H          -8.6325  -13.2731   41.4424 H         1 HIS         0.1199
    105 H         -10.7484  -12.4836   42.6426 H         1 HIS         0.2361
    106 H          -8.5354  -14.2761   35.3446 H         1 PRO         0.0802
    107 H          -8.0856  -11.9364   35.1883 H         1 PRO         0.0313
    108 H          -6.7568  -12.3837   36.3112 H         1 PRO         0.0313
    109 H          -8.4877  -10.5096   37.0281 H         1 PRO         0.0287
    110 H          -7.9985  -11.7608   38.2206 H         1 PRO         0.0287
    111 H         -10.3426  -12.0162   38.3132 H         1 PRO         0.0524
    112 H         -10.5606  -11.5559   36.5906 H         1 PRO         0.0524
    113 H          -6.3746  -15.1091   35.7087 H         1 VAL         0.1883
    114 H          -6.0604  -16.5020   38.2409 H         1 VAL         0.0802
    115 H          -5.3934  -17.4539   36.0121 H         1 VAL         0.0343
    116 H          -3.1953  -16.8135   35.0311 H         1 VAL         0.0234
    117 H          -3.0794  -15.4551   36.2007 H         1 VAL         0.0234
    118 H          -4.3867  -15.4707   34.9688 H         1 VAL         0.0234
    119 H          -4.5743  -18.3828   38.1784 H         1 VAL         0.0234
    120 H          -3.1372  -17.3092   38.0839 H         1 VAL         0.0234
    121 H          -3.3812  -18.5939   36.8523 H         1 VAL         0.0234
    122 H          -4.5923  -16.0832   39.8494 H         1 ALA         0.1883
    123 H          -3.4489  -13.3515   39.8761 H         1 ALA         0.0797
    124 H          -2.9730  -13.8152   42.2564 H         1 ALA         0.0277
    125 H          -3.5786  -15.4938   42.0515 H         1 ALA         0.0277
    126 H          -4.7014  -14.1045   41.8624 H         1 ALA         0.0277
    127 H          -1.3441  -12.9664   39.5354 H         1 GLU         0.1883
    128 H           0.3962  -15.2337   38.9217 H         1 GLU         0.0801
    129 H           2.0738  -13.5530   38.3642 H         1 GLU         0.0330
    130 H           1.0687  -12.2611   39.1042 H         1 GLU         0.0330
    131 H           0.9651  -12.1977   36.6635 H         1 GLU         0.0433
    132 H          -0.6366  -12.5755   37.3836 H         1 GLU         0.0433
    133 H           2.2797  -15.7715   40.0344 H         1 ALA         0.1883
    134 H           2.3561  -15.3521   42.8980 H         1 ALA         0.0797
    135 H           4.5076  -16.5534   42.7720 H         1 ALA         0.0277
    136 H           4.4723  -16.4340   40.9800 H         1 ALA         0.0277
    137 H           3.2293  -17.4044   41.8402 H         1 ALA         0.0277
    138 H           4.0884  -14.2305   44.0406 H         1 ASP         0.1884
    139 H           4.5981  -11.6248   43.0830 H         1 ASP         0.0819
    140 H           6.3544  -11.5029   44.8588 H         1 ASP         0.0478
    141 H           6.1423  -13.2642   45.1408 H         1 ASP         0.0478
    142 H           6.2182  -10.6694   41.9774 H         1 TYR         0.1885
    143 H           8.1317  -10.3624   40.7647 H         1 TYR         0.0821
    144 H          10.0906  -11.4793   41.3814 H         1 TYR         0.0453
    145 H           9.2193  -12.9990   41.7790 H         1 TYR         0.0453
    146 H           8.4675   -9.4954   42.8949 H         1 TYR         0.0530
    147 H           9.7588  -13.4012   44.0280 H         1 TYR         0.0530
    148 H           8.3798   -8.8365   45.2635 H         1 TYR         0.0525
    149 H           9.6717  -12.7465   46.3938 H         1 TYR         0.0525
    150 H           8.6903   -9.4842   47.3603 H         1 TYR         0.2458
    151 H           5.8388  -12.1983   39.8504 H         1 PHE         0.1885
    152 H           6.8920  -14.0676   37.9698 H         1 PHE         0.0823
    153 H           4.3154  -12.4404   38.0631 H         1 PHE         0.0474
    154 H           4.5600  -14.1729   38.4697 H         1 PHE         0.0474
    155 H           3.5070  -11.8722   35.9618 H         1 PHE         0.0557
    156 H           5.3013  -15.7140   36.5025 H         1 PHE         0.0557
    157 H           2.8505  -12.4941   33.6675 H         1 PHE         0.0599
    158 H           4.6636  -16.3369   34.1947 H         1 PHE         0.0599
    159 H           3.4309  -14.7173   32.7737 H         1 PHE         0.0559
    160 H           7.8523  -13.8171   36.0569 H         1 GLU         0.1883
    161 H           7.5281  -11.3835   34.4813 H         1 GLU         0.0801
    162 H           9.3436  -10.8652   36.1994 H         1 GLU         0.0330
    163 H           9.7885  -10.6564   34.4716 H         1 GLU         0.0330
    164 H          10.8906  -12.9179   34.5517 H         1 GLU         0.0433
    165 H          10.5647  -12.9604   36.3177 H         1 GLU         0.0433
    166 H           8.1628  -11.6412   32.3769 H         1 TYR         0.1877
    167 H           8.6746  -14.2890   31.4105 H         1 TYR         0.0747
    168 H           8.9591  -13.1422   29.1863 H         1 TYR         0.0446
    169 H           8.6505  -11.5792   30.0159 H         1 TYR         0.0446
    170 H           7.1142  -13.7156   27.8716 H         1 TYR         0.0530
    171 H           6.3879  -11.9431   31.6211 H         1 TYR         0.0530
    172 H           4.7139  -14.0072   27.5205 H         1 TYR         0.0525
    173 H           4.0107  -12.1939   31.2660 H         1 TYR         0.0525
    174 H           2.6956  -13.6343   28.3971 H         1 TYR         0.2458
@<TRIPOS>BOND
     1    1    2 1  
     2    2    3 1  
     3    2    5 1  
     4    3    4 2  
     5    3   11 am 
     6    5    6 1  
     7    6    7 1  
     8    6    8 2  
     9    7    9 2  
    10    8   10 1  
    11    9   10 1  
    12   11   12 1  
    13   11   17 1  
    14   12   13 1  
    15   12   15 1  
    16   13   14 2  
    17   13   18 am 
    18   15   16 1  
    19   16   17 1  
    20   18   19 1  
    21   19   20 1  
    22   19   22 1  
    23   20   21 2  
    24   20   25 am 
    25   22   23 1  
    26   22   24 1  
    27   25   26 1  
    28   26   27 1  
    29   26   29 1  
    30   27   28 2  
    31   27   30 am 
    32   30   31 1  
    33   31   32 1  
    34   31   34 1  
    35   32   33 2  
    36   32   39 am 
    37   34   35 1  
    38   35   36 1  
    39   36   37 ar 
    40   36   38 ar 
    41   39   40 1  
    42   40   41 1  
    43   40   43 1  
    44   41   42 2  
    45   41   44 am 
    46   44   45 1  
    47   45   46 1  
    48   45   48 1  
    49   46   47 2  
    50   46   52 am 
    51   48   49 1  
    52   49   50 ar 
    53   49   51 ar 
    54   52   53 1  
    55   53   54 1  
    56   53   56 1  
    57   54   55 2  
    58   54   64 am 
    59   56   57 1  
    60   57   58 ar 
    61   57   59 ar 
    62   58   60 ar 
    63   59   61 ar 
    64   60   62 ar 
    65   61   62 ar 
    66   62   63 1  
    67   64   65 1  
    68   65   66 1  
    69   65   68 1  
    70   66   67 2  
    71   66   75 am 
    72   68   69 1  
    73   69   70 ar 
    74   69   71 ar 
    75   70   72 ar 
    76   71   73 ar 
    77   72   74 ar 
    78   73   74 ar 
    79   75   76 1  
    80   76   77 1  
    81   76   79 1  
    82   77   78 2  
    83   77   84 am 
    84   79   80 1  
    85   80   81 1  
    86   81   82 ar 
    87   81   83 ar 
    88   84   85 1  
    89   85   86 1  
    90   85   88 1  
    91   86   87 ar 
    92   86   96 ar 
    93   88   89 1  
    94   89   90 ar 
    95   89   91 ar 
    96   90   92 ar 
    97   91   93 ar 
    98   92   94 ar 
    99   93   94 ar 
   100   94   95 1  
   101    1   97 1  
   102    1   98 1  
   103    1   99 1  
   104    2  100 1  
   105    5  101 1  
   106    5  102 1  
   107    8  103 1  
   108    9  104 1  
   109   10  105 1  
   110   12  106 1  
   111   15  107 1  
   112   15  108 1  
   113   16  109 1  
   114   16  110 1  
   115   17  111 1  
   116   17  112 1  
   117   18  113 1  
   118   19  114 1  
   119   22  115 1  
   120   23  116 1  
   121   23  117 1  
   122   23  118 1  
   123   24  119 1  
   124   24  120 1  
   125   24  121 1  
   126   25  122 1  
   127   26  123 1  
   128   29  124 1  
   129   29  125 1  
   130   29  126 1  
   131   30  127 1  
   132   31  128 1  
   133   34  129 1  
   134   34  130 1  
   135   35  131 1  
   136   35  132 1  
   137   39  133 1  
   138   40  134 1  
   139   43  135 1  
   140   43  136 1  
   141   43  137 1  
   142   44  138 1  
   143   45  139 1  
   144   48  140 1  
   145   48  141 1  
   146   52  142 1  
   147   53  143 1  
   148   56  144 1  
   149   56  145 1  
   150   58  146 1  
   151   59  147 1  
   152   60  148 1  
   153   61  149 1  
   154   63  150 1  
   155   64  151 1  
   156   65  152 1  
   157   68  153 1  
   158   68  154 1  
   159   70  155 1  
   160   71  156 1  
   161   72  157 1  
   162   73  158 1  
   163   74  159 1  
   164   75  160 1  
   165   76  161 1  
   166   79  162 1  
   167   79  163 1  
   168   80  164 1  
   169   80  165 1  
   170   84  166 1  
   171   85  167 1  
   172   88  168 1  
   173   88  169 1  
   174   90  170 1  
   175   91  171 1  
   176   92  172 1  
   177   93  173 1  
   178   95  174 1  
@<TRIPOS>SUBSTRUCTURE
     1 HIS         1

