4prb_ligand
  -I-interpret- 

177181  0  0  0  0  0  0  0  0999 V2000
  -13.0500  -14.6930   36.6150 N   0  3  0  0  0
  -12.0300  -14.1830   37.5320 C   0  0  0  0  0
  -10.6490  -14.5080   36.9700 C   0  0  0  0  0
  -10.3870  -15.6390   36.5870 O   0  0  0  0  0
  -12.1760  -14.8410   38.9080 C   0  0  0  0  0
  -11.4210  -14.1450   40.0020 C   0  0  0  0  0
  -10.0440  -14.1310   40.0680 N   0  0  0  0  0
  -11.8560  -13.4510   41.0820 C   0  0  0  0  0
   -9.6620  -13.4540   41.1370 C   0  0  0  0  0
  -10.7420  -13.0340   41.7720 N   0  0  0  0  0
   -9.7620  -13.5100   36.9040 N   0  0  0  0  0
   -8.4440  -13.7720   36.3180 C   0  0  0  0  0
   -7.5670  -14.5950   37.2460 C   0  0  0  0  0
   -7.8620  -14.6990   38.4360 O   0  0  0  0  0
   -7.8480  -12.3630   36.1740 C   0  0  0  0  0
   -8.5030  -11.5850   37.2590 C   0  0  0  0  0
   -9.9200  -12.0990   37.3010 C   0  0  0  0  0
   -6.5050  -15.1740   36.6980 N   0  0  0  0  0
   -5.5250  -15.9000   37.4920 C   0  0  0  0  0
   -4.6440  -14.8950   38.2230 C   0  0  0  0  0
   -4.3610  -13.8140   37.7070 O   0  0  0  0  0
   -4.6890  -16.8640   36.6170 C   0  0  0  0  0
   -3.7710  -16.0950   35.6330 C   0  0  0  0  0
   -3.8870  -17.8600   37.4970 C   0  0  0  0  0
   -4.2540  -15.2330   39.4460 N   0  0  0  0  0
   -3.3440  -14.3930   40.2140 C   0  0  0  0  0
   -1.9190  -14.8530   39.9600 C   0  0  0  0  0
   -1.6110  -16.0420   40.0290 O   0  0  0  0  0
   -3.6720  -14.4560   41.6990 C   0  0  0  0  0
   -1.0440  -13.9150   39.6360 N   0  0  0  0  0
    0.3450  -14.2580   39.4270 C   0  0  0  0  0
    1.0570  -14.3570   40.7750 C   0  0  0  0  0
    0.6630  -13.6980   41.7380 O   0  0  0  0  0
    1.0450  -13.2110   38.5500 C   0  0  0  0  0
    0.3790  -12.9570   37.2020 C   0  0  0  0  0
    0.2760  -14.1940   36.3240 C   0  0  0  0  0
    1.0770  -15.1410   36.4840 O   0  0  0  0  0
   -0.6130  -14.2100   35.4480 O   0  0  0  0  0
    2.0930  -15.1870   40.8240 N   0  0  0  0  0
    2.9680  -15.2770   41.9870 C   0  0  0  0  0
    3.8140  -14.0150   42.0510 C   0  0  0  0  0
    4.0100  -13.3450   41.0420 O   0  0  0  0  0
    3.8550  -16.5010   41.8880 C   0  0  0  0  0
    4.3100  -13.6810   43.2350 N   0  0  0  0  0
    5.1770  -12.5160   43.3670 C   0  0  0  0  0
    6.3760  -12.6260   42.4250 C   0  0  0  0  0
    6.9100  -13.7160   42.2060 O   0  0  0  0  0
    5.6420  -12.3400   44.8160 C   0  0  0  0  0
    4.4930  -12.0500   45.7630 C   0  0  0  0  0
    3.4380  -11.5720   45.2920 O   0  0  0  0  0
    4.6420  -12.2980   46.9800 O   0  0  0  0  0
    6.7670  -11.4950   41.8460 N   0  0  0  0  0
    7.9710  -11.4190   41.0250 C   0  0  0  0  0
    7.8520  -12.2040   39.7150 C   0  0  0  0  0
    8.8620  -12.5740   39.1160 O   0  0  0  0  0
    9.1800  -11.9010   41.8320 C   0  0  0  0  0
    9.1320  -11.4920   43.2900 C   0  0  0  0  0
    8.7380  -10.2130   43.6610 C   0  0  0  0  0
    9.4590  -12.3940   44.2940 C   0  0  0  0  0
    8.6850   -9.8400   44.9900 C   0  0  0  0  0
    9.4090  -12.0310   45.6230 C   0  0  0  0  0
    9.0230  -10.7530   45.9660 C   0  0  0  0  0
    8.9720  -10.3890   47.2920 O   0  0  0  0  0
    6.6180  -12.4560   39.2790 N   0  0  0  0  0
    6.3710  -13.0990   37.9880 C   0  0  0  0  0
    6.9390  -12.2210   36.8730 C   0  0  0  0  0
    6.7260  -11.0110   36.8600 O   0  0  0  0  0
    4.8590  -13.3580   37.7940 C   0  0  0  0  0
    4.4670  -13.7440   36.3850 C   0  0  0  0  0
    3.7660  -12.8520   35.5770 C   0  0  0  0  0
    4.7730  -15.0010   35.8800 C   0  0  0  0  0
    3.3940  -13.2010   34.2840 C   0  0  0  0  0
    4.4090  -15.3570   34.5820 C   0  0  0  0  0
    3.7160  -14.4470   33.7840 C   0  0  0  0  0
    7.6830  -12.8360   35.9630 N   0  0  0  0  0
    8.2590  -12.1260   34.8340 C   0  0  0  0  0
    8.5630  -13.0830   33.6960 C   0  0  0  0  0
    8.7550  -14.2870   33.9060 O   0  0  0  0  0
    9.5410  -11.3900   35.2530 C   0  0  0  0  0
   10.7550  -12.3050   35.4550 C   0  0  0  0  0
   12.0390  -11.5150   35.7110 C   0  0  0  0  0
   11.9430  -10.2920   35.9710 O   0  0  0  0  0
   13.1390  -12.1110   35.6330 O   0  0  0  0  0
    8.5360  -12.5620   32.4900 N   0  0  0  0  0
    9.0110  -13.2440   31.3420 C   0  0  0  0  0
   10.5600  -13.2420   31.3370 C   0  0  0  0  0
   11.0970  -13.9500   30.5580 O   0  0  0  0  0
    8.4360  -12.6580   30.0240 C   0  0  0  0  0
    6.9270  -12.8360   29.7980 C   0  0  0  0  0
    6.4230  -13.3910   28.6410 C   0  0  0  0  0
    6.0340  -12.4080   30.7080 C   0  0  0  0  0
    5.0790  -13.5460   28.4310 C   0  0  0  0  0
    4.7000  -12.5460   30.5070 C   0  0  0  0  0
    4.2100  -13.1130   29.3810 C   0  0  0  0  0
    2.8860  -13.2190   29.2300 O   0  0  0  0  0
   11.1890  -12.5230   32.1190 O   0  0  0  0  0
  -12.9406  -14.2467   35.7044 H   0  0  0  0  0
  -12.9419  -15.7024   36.5154 H   0  0  0  0  0
  -13.9760  -14.4842   36.9882 H   0  0  0  0  0
  -12.1526  -13.1051   37.6374 H   0  0  0  0  0
  -11.7714  -15.8500   38.8279 H   0  0  0  0  0
  -13.2329  -14.8057   39.1722 H   0  0  0  0  0
  -12.8943  -13.2594   41.3528 H   0  0  0  0  0
   -8.6315  -13.2730   41.4427 H   0  0  0  0  0
   -8.5112  -14.3345   35.3868 H   0  0  0  0  0
   -8.0316  -11.9346   35.1887 H   0  0  0  0  0
   -6.7616  -12.3622   36.2619 H   0  0  0  0  0
   -8.4661  -10.5125   37.0681 H   0  0  0  0  0
   -7.9957  -11.7157   38.2148 H   0  0  0  0  0
  -10.3873  -11.9811   38.2787 H   0  0  0  0  0
  -10.5938  -11.5452   36.6472 H   0  0  0  0  0
   -6.3720  -15.1078   35.6889 H   0  0  0  0  0
   -6.0413  -16.5210   38.2240 H   0  0  0  0  0
   -5.3824  -17.4464   36.0102 H   0  0  0  0  0
   -4.3823  -15.4768   34.9755 H   0  0  0  0  0
   -3.0863  -15.4613   36.1967 H   0  0  0  0  0
   -3.2011  -16.8080   35.0372 H   0  0  0  0  0
   -3.2126  -17.3050   38.1491 H   0  0  0  0  0
   -4.5785  -18.4466   38.1019 H   0  0  0  0  0
   -3.3088  -18.5253   36.8557 H   0  0  0  0  0
   -4.5991  -16.1002   39.8575 H   0  0  0  0  0
   -3.4547  -13.3560   39.8971 H   0  0  0  0  0
   -4.6922  -14.1075   41.8595 H   0  0  0  0  0
   -3.5791  -15.4848   42.0470 H   0  0  0  0  0
   -2.9787  -13.8207   42.2502 H   0  0  0  0  0
   -1.3501  -12.9474   39.5334 H   0  0  0  0  0
    0.3883  -15.2192   38.9147 H   0  0  0  0  0
    2.0455  -13.5904   38.3420 H   0  0  0  0  0
    1.0178  -12.2696   39.0987 H   0  0  0  0  0
    0.9924  -12.2307   36.6687 H   0  0  0  0  0
   -0.6366  -12.6149   37.4011 H   0  0  0  0  0
    1.6768  -14.9331   37.2041 H   0  0  0  0  0
    2.2834  -15.7832   40.0186 H   0  0  0  0  0
    2.3697  -15.3693   42.8934 H   0  0  0  0  0
    3.2338  -17.3954   41.8406 H   0  0  0  0  0
    4.4661  -16.4334   40.9880 H   0  0  0  0  0
    4.5011  -16.5518   42.7644 H   0  0  0  0  0
    4.0840  -14.2415   44.0567 H   0  0  0  0  0
    4.6012  -11.6336   43.0879 H   0  0  0  0  0
    6.3273  -11.4930   44.8490 H   0  0  0  0  0
    6.1132  -13.2702   45.1335 H   0  0  0  0  0
    5.5200  -12.6574   47.1270 H   0  0  0  0  0
    6.2072  -10.6529   41.9800 H   0  0  0  0  0
    8.1057  -10.3738   40.7464 H   0  0  0  0  0
   10.0694  -11.4489   41.3931 H   0  0  0  0  0
    9.1856  -12.9904   41.7964 H   0  0  0  0  0
    8.4660   -9.4914   42.8906 H   0  0  0  0  0
    9.7605  -13.4068   44.0265 H   0  0  0  0  0
    8.3781   -8.8309   45.2650 H   0  0  0  0  0
    9.6732  -12.7504   46.3981 H   0  0  0  0  0
    9.2355  -11.1337   47.8375 H   0  0  0  0  0
    5.8232  -12.1932   39.8618 H   0  0  0  0  0
    6.8713  -14.0669   37.9567 H   0  0  0  0  0
    4.3425  -12.4266   38.0259 H   0  0  0  0  0
    4.5921  -14.1939   38.4407 H   0  0  0  0  0
    3.5056  -11.8668   35.9639 H   0  0  0  0  0
    5.3042  -15.7180   36.5060 H   0  0  0  0  0
    2.8475  -12.4902   33.6641 H   0  0  0  0  0
    4.6650  -16.3424   34.1926 H   0  0  0  0  0
    3.4293  -14.7188   32.7681 H   0  0  0  0  0
    7.8557  -13.8367   36.0588 H   0  0  0  0  0
    7.5287  -11.3933   34.4907 H   0  0  0  0  0
    9.3376  -10.9102   36.2103 H   0  0  0  0  0
    9.7910  -10.6974   34.4493 H   0  0  0  0  0
   10.8930  -12.8903   34.5459 H   0  0  0  0  0
   10.5646  -12.9332   36.3252 H   0  0  0  0  0
   11.0167  -10.0402   35.9826 H   0  0  0  0  0
    8.1554  -11.6227   32.3746 H   0  0  0  0  0
    8.6582  -14.2741   31.3923 H   0  0  0  0  0
    8.9287  -13.1954   29.2137 H   0  0  0  0  0
    8.6104  -11.5830   30.0695 H   0  0  0  0  0
    7.1180  -13.7174   27.8673 H   0  0  0  0  0
    6.3899  -11.9405   31.6261 H   0  0  0  0  0
    4.7119  -14.0098   27.5154 H   0  0  0  0  0
    4.0069  -12.1920   31.2702 H   0  0  0  0  0
    2.4469  -12.8593   30.0042 H   0  0  0  0  0
   10.5723  -12.0291   32.6643 H   0  0  0  0  0
  1  2  1  0  0  0
  2  3  1  0  0  0
  2  5  1  0  0  0
  3  4  2  0  0  0
  3 11  1  0  0  0
  5  6  1  0  0  0
  6  7  4  0  0  0
  6  8  4  0  0  0
  7  9  4  0  0  0
  8 10  4  0  0  0
  9 10  4  0  0  0
 11 12  1  0  0  0
 11 17  1  0  0  0
 12 13  1  0  0  0
 12 15  1  0  0  0
 13 14  2  0  0  0
 13 18  1  0  0  0
 15 16  1  0  0  0
 16 17  1  0  0  0
 18 19  1  0  0  0
 19 20  1  0  0  0
 19 22  1  0  0  0
 20 21  2  0  0  0
 20 25  1  0  0  0
 22 23  1  0  0  0
 22 24  1  0  0  0
 25 26  1  0  0  0
 26 27  1  0  0  0
 26 29  1  0  0  0
 27 28  2  0  0  0
 27 30  1  0  0  0
 30 31  1  0  0  0
 31 32  1  0  0  0
 31 34  1  0  0  0
 32 33  2  0  0  0
 32 39  1  0  0  0
 34 35  1  0  0  0
 35 36  1  0  0  0
 36 37  1  0  0  0
 36 38  2  0  0  0
 39 40  1  0  0  0
 40 41  1  0  0  0
 40 43  1  0  0  0
 41 42  2  0  0  0
 41 44  1  0  0  0
 44 45  1  0  0  0
 45 46  1  0  0  0
 45 48  1  0  0  0
 46 47  2  0  0  0
 46 52  1  0  0  0
 48 49  1  0  0  0
 49 50  2  0  0  0
 49 51  1  0  0  0
 52 53  1  0  0  0
 53 54  1  0  0  0
 53 56  1  0  0  0
 54 55  2  0  0  0
 54 64  1  0  0  0
 56 57  1  0  0  0
 57 58  4  0  0  0
 57 59  4  0  0  0
 58 60  4  0  0  0
 59 61  4  0  0  0
 60 62  4  0  0  0
 61 62  4  0  0  0
 62 63  1  0  0  0
 64 65  1  0  0  0
 65 66  1  0  0  0
 65 68  1  0  0  0
 66 67  2  0  0  0
 66 75  1  0  0  0
 68 69  1  0  0  0
 69 70  4  0  0  0
 69 71  4  0  0  0
 70 72  4  0  0  0
 71 73  4  0  0  0
 72 74  4  0  0  0
 73 74  4  0  0  0
 75 76  1  0  0  0
 76 77  1  0  0  0
 76 79  1  0  0  0
 77 78  2  0  0  0
 77 84  1  0  0  0
 79 80  1  0  0  0
 80 81  1  0  0  0
 81 82  1  0  0  0
 81 83  2  0  0  0
 84 85  1  0  0  0
 85 86  1  0  0  0
 85 88  1  0  0  0
 86 87  2  0  0  0
 86 96  1  0  0  0
 88 89  1  0  0  0
 89 90  4  0  0  0
 89 91  4  0  0  0
 90 92  4  0  0  0
 91 93  4  0  0  0
 92 94  4  0  0  0
 93 94  4  0  0  0
 94 95  1  0  0  0
  1 97  1  0  0  0
  1 98  1  0  0  0
  1 99  1  0  0  0
  2100  1  0  0  0
  5101  1  0  0  0
  5102  1  0  0  0
  8103  1  0  0  0
  9104  1  0  0  0
 12105  1  0  0  0
 15106  1  0  0  0
 15107  1  0  0  0
 16108  1  0  0  0
 16109  1  0  0  0
 17110  1  0  0  0
 17111  1  0  0  0
 18112  1  0  0  0
 19113  1  0  0  0
 22114  1  0  0  0
 23115  1  0  0  0
 23116  1  0  0  0
 23117  1  0  0  0
 24118  1  0  0  0
 24119  1  0  0  0
 24120  1  0  0  0
 25121  1  0  0  0
 26122  1  0  0  0
 29123  1  0  0  0
 29124  1  0  0  0
 29125  1  0  0  0
 30126  1  0  0  0
 31127  1  0  0  0
 34128  1  0  0  0
 34129  1  0  0  0
 35130  1  0  0  0
 35131  1  0  0  0
 37132  1  0  0  0
 39133  1  0  0  0
 40134  1  0  0  0
 43135  1  0  0  0
 43136  1  0  0  0
 43137  1  0  0  0
 44138  1  0  0  0
 45139  1  0  0  0
 48140  1  0  0  0
 48141  1  0  0  0
 51142  1  0  0  0
 52143  1  0  0  0
 53144  1  0  0  0
 56145  1  0  0  0
 56146  1  0  0  0
 58147  1  0  0  0
 59148  1  0  0  0
 60149  1  0  0  0
 61150  1  0  0  0
 63151  1  0  0  0
 64152  1  0  0  0
 65153  1  0  0  0
 68154  1  0  0  0
 68155  1  0  0  0
 70156  1  0  0  0
 71157  1  0  0  0
 72158  1  0  0  0
 73159  1  0  0  0
 74160  1  0  0  0
 75161  1  0  0  0
 76162  1  0  0  0
 79163  1  0  0  0
 79164  1  0  0  0
 80165  1  0  0  0
 80166  1  0  0  0
 82167  1  0  0  0
 84168  1  0  0  0
 85169  1  0  0  0
 88170  1  0  0  0
 88171  1  0  0  0
 90172  1  0  0  0
 91173  1  0  0  0
 92174  1  0  0  0
 93175  1  0  0  0
 95176  1  0  0  0
 96177  1  0  0  0
M  END
$$$$
