1y2k_ligand
  -I-interpret- 

 36 37  0  0  0  0  0  0  0  0999 V2000
   10.6840   42.2670   15.7390 O   0  0  0  0  0
   10.8910   43.1080   16.5910 N   0  0  0  0  0
   10.5610   42.9540   17.7520 O   0  0  0  0  0
   11.7100   44.1590   16.2920 C   0  0  0  0  0
   11.8620   45.2270   17.1940 C   0  0  0  0  0
   12.4350   44.2050   15.0810 C   0  0  0  0  0
   13.2690   45.2870   14.7800 C   0  0  0  0  0
   13.4100   46.3370   15.6930 C   0  0  0  0  0
   12.7020   46.3040   16.8970 C   0  0  0  0  0
   13.9730   45.3270   13.6190 N   0  0  0  0  0
   13.5230   45.4580   12.3860 C   0  0  0  0  0
   12.0530   45.6070   12.0420 C   0  0  0  0  0
   14.5740   45.4430   11.5290 C   0  0  0  0  0
   15.7490   45.2820   12.4030 C   0  0  0  0  0
   15.3140   45.2230   13.5890 N   0  0  0  0  0
   17.2140   45.1910   12.0710 C   0  0  0  0  0
   14.6100   45.5570   10.0530 C   0  0  0  0  0
   15.6900   45.6880    9.4810 O   0  0  0  0  0
   13.4520   45.4600    9.3940 O   0  0  0  0  0
   13.4660   45.5290    7.9480 C   0  0  0  0  0
   12.0210   45.6420    7.4140 C   0  0  0  0  0
   11.3172   45.2148   18.1380 H   0  0  0  0  0
   12.3433   43.3844   14.3695 H   0  0  0  0  0
   14.0682   47.1759   15.4667 H   0  0  0  0  0
   12.8053   47.1229   17.6089 H   0  0  0  0  0
   11.5085   44.7300   12.3921 H   0  0  0  0  0
   11.6565   46.4995   12.5261 H   0  0  0  0  0
   11.9414   45.6981   10.9616 H   0  0  0  0  0
   17.3857   44.3315   11.4230 H   0  0  0  0  0
   17.5266   46.1014   11.5596 H   0  0  0  0  0
   17.7871   45.0744   12.9908 H   0  0  0  0  0
   13.9274   44.6256    7.5491 H   0  0  0  0  0
   14.0348   46.4046    7.6350 H   0  0  0  0  0
   11.4497   44.7683    7.7277 H   0  0  0  0  0
   11.5569   46.5437    7.8134 H   0  0  0  0  0
   12.0403   45.6934    6.3254 H   0  0  0  0  0
  1  2  2  0  0  0
  2  4  1  0  0  0
  2  3  2  0  0  0
  4  6  4  0  0  0
  4  5  4  0  0  0
  5  9  4  0  0  0
  9  8  4  0  0  0
  8  7  4  0  0  0
  7 10  1  0  0  0
  7  6  4  0  0  0
 10 15  4  0  0  0
 10 11  4  0  0  0
 11 13  4  0  0  0
 11 12  1  0  0  0
 13 17  1  0  0  0
 13 14  4  0  0  0
 14 16  1  0  0  0
 14 15  4  0  0  0
 17 19  1  0  0  0
 17 18  2  0  0  0
 19 20  1  0  0  0
 20 21  1  0  0  0
  5 22  1  0  0  0
  6 23  1  0  0  0
  8 24  1  0  0  0
  9 25  1  0  0  0
 12 26  1  0  0  0
 12 27  1  0  0  0
 12 28  1  0  0  0
 16 29  1  0  0  0
 16 30  1  0  0  0
 16 31  1  0  0  0
 20 32  1  0  0  0
 20 33  1  0  0  0
 21 34  1  0  0  0
 21 35  1  0  0  0
 21 36  1  0  0  0
M  END
$$$$
