5lsh_ligand
  -I-interpret- 

 96 99  0  0  0  0  0  0  0  0999 V2000
   -5.8350    9.4560    7.5610 O   0  0  0  0  0
   -6.1100    9.3840    6.1500 C   0  0  0  0  0
   -7.6020    9.2590    5.9380 C   0  0  0  0  0
   -8.1860   10.4770    6.4250 O   0  0  0  0  0
   -9.5420   10.3140    6.8310 C   0  0  0  0  0
  -10.5110    9.9910    5.6960 C   0  0  0  0  0
  -10.6500    8.5800    5.5280 O   0  0  0  0  0
  -11.8390   10.5730    6.1560 C   0  0  0  0  0
  -12.5240   11.1910    5.0960 O   0  0  0  0  0
  -11.5200   11.3230    7.3400 O   0  0  0  0  0
  -10.1100   11.6040    7.4020 C   0  0  0  0  0
   -9.5470   11.9000    8.7940 C   0  0  0  0  0
   -9.9070   10.8390    9.6890 O   0  0  0  0  0
   -9.9280   13.2650    9.3580 C   0  0  0  0  0
  -11.3430   13.4080    9.4120 O   0  0  0  0  0
   -5.5830   10.5830    5.3710 C   0  0  0  0  0
   -5.9720   10.4520    3.8970 C   0  0  0  0  0
   -5.2700    9.3460    3.3060 O   0  0  0  0  0
   -7.4640   10.1730    3.7650 C   0  0  0  0  0
   -7.8140    9.9090    2.3110 C   0  0  0  0  0
   -7.5120   11.0620    1.5140 O   0  0  0  0  0
   -7.8420    9.0270    4.5420 O   0  0  0  0  0
   -4.1700   10.5750    5.5250 O   0  0  0  0  0
   -3.6040   11.8740    5.4610 C   0  0  0  0  0
   -2.1540   11.8500    5.9430 C   0  0  0  0  0
   -2.0110   12.1200    7.3480 O   0  0  0  0  0
   -1.5920   13.0010    5.1230 C   0  0  0  0  0
   -2.2250   12.7010    3.7680 C   0  0  0  0  0
   -2.2130   13.8680    2.7820 C   0  0  0  0  0
   -2.9690   13.4890    1.5140 C   0  0  0  0  0
   -2.2900   12.4390    0.8310 O   0  0  0  0  0
   -2.8390   15.0240    3.3920 O   0  0  0  0  0
   -3.5740   12.3580    4.1080 O   0  0  0  0  0
   -0.1820   12.9710    5.0360 O   0  0  0  0  0
    0.3530   14.2860    5.3080 C   0  0  0  0  0
    1.8270   14.2920    4.9480 C   0  0  0  0  0
    1.9480   13.8700    3.5870 O   0  0  0  0  0
    2.5950   13.3300    5.8450 C   0  0  0  0  0
    4.0040   13.3940    5.5900 O   0  0  0  0  0
    2.3530   13.7980    7.2670 C   0  0  0  0  0
    2.8520   15.1420    7.4280 O   0  0  0  0  0
    0.8560   13.7500    7.5650 C   0  0  0  0  0
    0.1480   14.6510    6.6880 O   0  0  0  0  0
    0.6230   14.2300    8.9950 C   0  0  0  0  0
    0.8830   15.6370    9.0800 O   0  0  0  0  0
  -12.7540   10.4500    3.8930 C   0  0  0  0  0
  -13.9100   10.9790    3.0450 C   0  0  0  0  0
  -13.9380   12.4930    3.0880 C   0  0  0  0  0
   -6.1896    8.6767    7.9952 H   0  0  0  0  0
   -5.5872    8.5073    5.7677 H   0  0  0  0  0
   -8.0507    8.4227    6.4742 H   0  0  0  0  0
   -9.4803    9.4926    7.5449 H   0  0  0  0  0
  -10.1666   10.3952    4.7441 H   0  0  0  0  0
   -9.8133    8.2095    5.2376 H   0  0  0  0  0
  -12.5993    9.8484    6.4476 H   0  0  0  0  0
   -9.8527   12.5212    6.8722 H   0  0  0  0  0
   -8.4632   11.9479    8.6888 H   0  0  0  0  0
   -9.5538   11.0247   10.5621 H   0  0  0  0  0
   -9.5192   14.0410    8.7108 H   0  0  0  0  0
   -9.5254   13.3550   10.3669 H   0  0  0  0  0
  -11.5628   14.2716    9.7689 H   0  0  0  0  0
   -6.0033   11.5195    5.7377 H   0  0  0  0  0
   -5.7173   11.3858    3.3957 H   0  0  0  0  0
   -5.5176    9.2684    2.3817 H   0  0  0  0  0
   -8.0021   11.0478    4.1301 H   0  0  0  0  0
   -8.8789    9.6898    2.2337 H   0  0  0  0  0
   -7.2299    9.0622    1.9506 H   0  0  0  0  0
   -7.7369   10.8841    0.5978 H   0  0  0  0  0
   -4.2209   12.5169    6.0889 H   0  0  0  0  0
   -1.6699   10.8812    5.8193 H   0  0  0  0  0
   -1.0813   12.0902    7.5854 H   0  0  0  0  0
   -1.8075   13.9856    5.5379 H   0  0  0  0  0
   -1.6652   11.9226    3.2496 H   0  0  0  0  0
   -1.1809   14.1049    2.5236 H   0  0  0  0  0
   -3.0285   14.3594    0.8606 H   0  0  0  0  0
   -3.9697   13.1508    1.7831 H   0  0  0  0  0
   -2.7757   12.2099    0.0352 H   0  0  0  0  0
   -2.8305   15.7561    2.7710 H   0  0  0  0  0
   -0.1690   15.0280    4.7038 H   0  0  0  0  0
    2.2383   15.2924    5.0829 H   0  0  0  0  0
    2.8745   13.8658    3.3356 H   0  0  0  0  0
    2.2634   12.3069    5.6675 H   0  0  0  0  0
    4.4610   12.7788    6.1682 H   0  0  0  0  0
    2.8775   13.1445    7.9640 H   0  0  0  0  0
    2.6967   15.4340    8.3292 H   0  0  0  0  0
    0.5014   12.7290    7.4240 H   0  0  0  0  0
    1.2936   13.6970    9.6691 H   0  0  0  0  0
   -0.4117   14.0358    9.2775 H   0  0  0  0  0
    0.7353   15.9347    9.9806 H   0  0  0  0  0
  -13.0088    9.4314    4.1857 H   0  0  0  0  0
  -11.8498   10.5270    3.2892 H   0  0  0  0  0
  -14.8494   10.5928    3.4406 H   0  0  0  0  0
  -13.7750   10.6532    2.0136 H   0  0  0  0  0
  -14.0693   12.8236    4.1183 H   0  0  0  0  0
  -12.9988   12.8838    2.6966 H   0  0  0  0  0
  -14.7661   12.8572    2.4799 H   0  0  0  0  0
  1  2  1  0  0  0
  2  3  1  0  0  0
  2 16  1  0  0  0
  3  4  1  0  0  0
  3 22  1  0  0  0
  4  5  1  0  0  0
  5  6  1  0  0  0
  5 11  1  0  0  0
  6  7  1  0  0  0
  6  8  1  0  0  0
  8  9  1  0  0  0
  8 10  1  0  0  0
  9 46  1  0  0  0
 10 11  1  0  0  0
 11 12  1  0  0  0
 12 13  1  0  0  0
 12 14  1  0  0  0
 14 15  1  0  0  0
 16 17  1  0  0  0
 16 23  1  0  0  0
 17 18  1  0  0  0
 17 19  1  0  0  0
 19 20  1  0  0  0
 19 22  1  0  0  0
 20 21  1  0  0  0
 23 24  1  0  0  0
 24 25  1  0  0  0
 24 33  1  0  0  0
 25 26  1  0  0  0
 25 27  1  0  0  0
 27 28  1  0  0  0
 27 34  1  0  0  0
 28 29  1  0  0  0
 28 33  1  0  0  0
 29 30  1  0  0  0
 29 32  1  0  0  0
 30 31  1  0  0  0
 34 35  1  0  0  0
 35 36  1  0  0  0
 35 43  1  0  0  0
 36 37  1  0  0  0
 36 38  1  0  0  0
 38 39  1  0  0  0
 38 40  1  0  0  0
 40 41  1  0  0  0
 40 42  1  0  0  0
 42 43  1  0  0  0
 42 44  1  0  0  0
 44 45  1  0  0  0
 46 47  1  0  0  0
 47 48  1  0  0  0
  1 49  1  0  0  0
  2 50  1  0  0  0
  3 51  1  0  0  0
  5 52  1  0  0  0
  6 53  1  0  0  0
  7 54  1  0  0  0
  8 55  1  0  0  0
 11 56  1  0  0  0
 12 57  1  0  0  0
 13 58  1  0  0  0
 14 59  1  0  0  0
 14 60  1  0  0  0
 15 61  1  0  0  0
 16 62  1  0  0  0
 17 63  1  0  0  0
 18 64  1  0  0  0
 19 65  1  0  0  0
 20 66  1  0  0  0
 20 67  1  0  0  0
 21 68  1  0  0  0
 24 69  1  0  0  0
 25 70  1  0  0  0
 26 71  1  0  0  0
 27 72  1  0  0  0
 28 73  1  0  0  0
 29 74  1  0  0  0
 30 75  1  0  0  0
 30 76  1  0  0  0
 31 77  1  0  0  0
 32 78  1  0  0  0
 35 79  1  0  0  0
 36 80  1  0  0  0
 37 81  1  0  0  0
 38 82  1  0  0  0
 39 83  1  0  0  0
 40 84  1  0  0  0
 41 85  1  0  0  0
 42 86  1  0  0  0
 44 87  1  0  0  0
 44 88  1  0  0  0
 45 89  1  0  0  0
 46 90  1  0  0  0
 46 91  1  0  0  0
 47 92  1  0  0  0
 47 93  1  0  0  0
 48 94  1  0  0  0
 48 95  1  0  0  0
 48 96  1  0  0  0
M  END
$$$$
