3fal_ligand
  -I-interpret- 

 57 58  0  0  0  0  0  0  0  0999 V2000
   64.7110   37.0980   23.6580 C   0  0  0  0  0
   63.5030   37.6280   24.3860 C   0  0  0  0  0
   63.4020   39.1250   24.2140 C   0  0  0  0  0
   61.9590   39.5670   24.0540 C   0  0  0  0  0
   61.9050   40.9870   24.3490 N   0  0  0  0  0
   61.0470   41.4450   25.4380 C   0  0  0  0  0
   59.6200   41.5140   25.0180 C   0  0  0  0  0
   59.3590   41.4080   23.6730 C   0  0  0  0  0
   58.0610   41.4760   23.2480 C   0  0  0  0  0
   57.7150   41.3560   21.5800 Cl  0  0  0  0  0
   57.0260   41.6440   24.1320 C   0  0  0  0  0
   55.7440   41.7120   23.6110 O   0  0  0  0  0
   54.9280   40.9180   24.4550 C   0  0  0  0  0
   57.2800   41.7480   25.4820 C   0  0  0  0  0
   56.1990   41.9280   26.3490 O   0  0  0  0  0
   56.5170   41.2990   27.5800 C   0  0  0  0  0
   58.5870   41.6840   25.9260 C   0  0  0  0  0
   62.1960   41.8840   23.2770 C   0  0  0  0  0
   62.0300   43.2470   23.4090 C   0  0  0  0  0
   62.3170   44.1310   22.3850 C   0  0  0  0  0
   62.7860   43.6820   21.1710 C   0  0  0  0  0
   62.9540   42.3210   21.0260 C   0  0  0  0  0
   62.6730   41.4440   22.0570 C   0  0  0  0  0
   63.0700   44.6560   20.0540 C   0  0  0  0  0
   63.1990   45.9790   20.5740 O   0  0  0  0  0
   64.3590   44.3730   19.3020 C   0  0  0  0  0
   64.2430   43.2940   18.4870 F   0  0  0  0  0
   64.6870   45.4340   18.5120 F   0  0  0  0  0
   65.3930   44.1390   20.1520 F   0  0  0  0  0
   61.8800   44.6250   19.0890 C   0  0  0  0  0
   60.7630   45.1340   19.6780 F   0  0  0  0  0
   62.1180   45.3420   17.9570 F   0  0  0  0  0
   61.5660   43.3730   18.6590 F   0  0  0  0  0
   64.6245   37.3297   22.5964 H   0  0  0  0  0
   65.6100   37.5644   24.0609 H   0  0  0  0  0
   64.7693   36.0178   23.7919 H   0  0  0  0  0
   63.5976   37.3974   25.4471 H   0  0  0  0  0
   62.6074   37.1615   23.9757 H   0  0  0  0  0
   63.9527   39.4086   23.3171 H   0  0  0  0  0
   63.8148   39.6044   25.1016 H   0  0  0  0  0
   61.3116   39.0110   24.7321 H   0  0  0  0  0
   61.6105   39.3740   23.0394 H   0  0  0  0  0
   61.3682   42.4439   25.7333 H   0  0  0  0  0
   61.1298   40.7376   26.2631 H   0  0  0  0  0
   60.1710   41.2723   22.9586 H   0  0  0  0  0
   55.2968   39.8923   24.4546 H   0  0  0  0  0
   54.9601   41.3166   25.4690 H   0  0  0  0  0
   53.9017   40.9366   24.0882 H   0  0  0  0  0
   56.6914   40.2367   27.4093 H   0  0  0  0  0
   57.4155   41.7535   27.9973 H   0  0  0  0  0
   55.6876   41.4252   28.2759 H   0  0  0  0  0
   58.8055   41.7672   26.9906 H   0  0  0  0  0
   61.6591   43.6417   24.3549 H   0  0  0  0  0
   62.1696   45.1996   22.5414 H   0  0  0  0  0
   63.3168   41.9276   20.0764 H   0  0  0  0  0
   62.8320   40.3766   21.9035 H   0  0  0  0  0
   63.3793   46.5883   19.8544 H   0  0  0  0  0
  1  2  1  0  0  0
  2  3  1  0  0  0
  3  4  1  0  0  0
  4  5  1  0  0  0
  5  6  1  0  0  0
  5 18  1  0  0  0
  6  7  1  0  0  0
  7  8  4  0  0  0
  7 17  4  0  0  0
  8  9  4  0  0  0
  9 10  1  0  0  0
  9 11  4  0  0  0
 11 12  1  0  0  0
 11 14  4  0  0  0
 12 13  1  0  0  0
 14 15  1  0  0  0
 14 17  4  0  0  0
 15 16  1  0  0  0
 18 19  4  0  0  0
 18 23  4  0  0  0
 19 20  4  0  0  0
 20 21  4  0  0  0
 21 22  4  0  0  0
 21 24  1  0  0  0
 22 23  4  0  0  0
 24 25  1  0  0  0
 24 26  1  0  0  0
 24 30  1  0  0  0
 26 27  1  0  0  0
 26 28  1  0  0  0
 26 29  1  0  0  0
 30 31  1  0  0  0
 30 32  1  0  0  0
 30 33  1  0  0  0
  1 34  1  0  0  0
  1 35  1  0  0  0
  1 36  1  0  0  0
  2 37  1  0  0  0
  2 38  1  0  0  0
  3 39  1  0  0  0
  3 40  1  0  0  0
  4 41  1  0  0  0
  4 42  1  0  0  0
  6 43  1  0  0  0
  6 44  1  0  0  0
  8 45  1  0  0  0
 13 46  1  0  0  0
 13 47  1  0  0  0
 13 48  1  0  0  0
 16 49  1  0  0  0
 16 50  1  0  0  0
 16 51  1  0  0  0
 17 52  1  0  0  0
 19 53  1  0  0  0
 20 54  1  0  0  0
 22 55  1  0  0  0
 23 56  1  0  0  0
 25 57  1  0  0  0
M  END
$$$$
