4uil_ligand
  -I-interpret- 

 49 52  0  0  0  0  0  0  0  0999 V2000
   -2.7130    0.5430  -46.3040 O   0  0  0  0  0
   -2.9000    1.2190  -45.0860 C   0  0  0  0  0
   -1.9640    2.4710  -45.0010 C   0  0  0  0  0
   -0.4580    2.1350  -44.9740 N   0  3  0  0  0
    0.0910    1.8380  -46.3790 C   0  0  0  0  0
   -0.0850    3.0730  -47.2650 C   0  0  0  0  0
    0.3240    3.4370  -44.4120 C   0  0  0  0  0
   -0.0330    4.6290  -45.2950 C   0  0  0  0  0
   -0.7900    5.6570  -44.5130 C   0  0  0  0  0
   -0.4510    6.9400  -44.4500 C   0  0  0  0  0
   -0.8550    4.1600  -46.5110 C   0  0  0  0  0
   -2.1880    3.5420  -46.0810 C   0  0  0  0  0
   -4.3170    1.6560  -44.8670 C   0  0  0  0  0
   -5.1720    1.8410  -45.9750 C   0  0  0  0  0
   -6.4770    2.2550  -45.7620 C   0  0  0  0  0
   -7.0260    2.5120  -44.5440 N   0  0  0  0  0
   -6.1940    2.3410  -43.4480 C   0  0  0  0  0
   -4.8200    1.9130  -43.5640 C   0  0  0  0  0
   -4.0660    1.7690  -42.3860 C   0  0  0  0  0
   -6.7480    2.6060  -42.1750 C   0  0  0  0  0
   -5.9740    2.4550  -41.0260 C   0  0  0  0  0
   -4.6580    2.0420  -41.1530 C   0  0  0  0  0
   -3.8290    1.8710  -40.0560 O   0  0  0  0  0
   -2.7630    2.7730  -39.9400 C   0  0  0  0  0
   -1.7913    0.2885  -46.3892 H   0  0  0  0  0
   -2.6483    0.5026  -44.3040 H   0  0  0  0  0
   -2.2659    2.8880  -44.0402 H   0  0  0  0  0
   -0.3225    1.3088  -44.3913 H   0  0  0  0  0
   -0.4529    0.9987  -46.8124 H   0  0  0  0  0
    1.1495    1.5870  -46.3106 H   0  0  0  0  0
   -0.6443    2.7943  -48.1581 H   0  0  0  0  0
    0.8972    3.4574  -47.5400 H   0  0  0  0  0
    1.4001    3.2649  -44.4337 H   0  0  0  0  0
    0.0293    3.6339  -43.3812 H   0  0  0  0  0
    0.8897    5.0862  -45.6524 H   0  0  0  0  0
   -1.6729    5.3331  -43.9619 H   0  0  0  0  0
    0.4260    7.2991  -44.9886 H   0  0  0  0  0
   -1.0499    7.6336  -43.8597 H   0  0  0  0  0
   -1.0343    5.0353  -47.1354 H   0  0  0  0  0
   -2.8261    4.3263  -45.6739 H   0  0  0  0  0
   -2.6578    3.0770  -46.9477 H   0  0  0  0  0
   -4.8095    1.6601  -46.9869 H   0  0  0  0  0
   -7.1128    2.3848  -46.6378 H   0  0  0  0  0
   -3.0261    1.4463  -42.4360 H   0  0  0  0  0
   -7.7854    2.9300  -42.0916 H   0  0  0  0  0
   -6.3977    2.6587  -40.0426 H   0  0  0  0  0
   -2.1222    2.6910  -40.8179 H   0  0  0  0  0
   -3.1538    3.7879  -39.8673 H   0  0  0  0  0
   -2.1867    2.5392  -39.0448 H   0  0  0  0  0
  1  2  1  0  0  0
  2  3  1  0  0  0
  2 13  1  0  0  0
  3  4  1  0  0  0
  3 12  1  0  0  0
  4  5  1  0  0  0
  4  7  1  0  0  0
  5  6  1  0  0  0
  6 11  1  0  0  0
  7  8  1  0  0  0
  8  9  1  0  0  0
  8 11  1  0  0  0
  9 10  2  0  0  0
 11 12  1  0  0  0
 13 14  4  0  0  0
 13 18  4  0  0  0
 14 15  4  0  0  0
 15 16  4  0  0  0
 16 17  4  0  0  0
 17 18  4  0  0  0
 17 20  4  0  0  0
 18 19  4  0  0  0
 19 22  4  0  0  0
 20 21  4  0  0  0
 21 22  4  0  0  0
 22 23  1  0  0  0
 23 24  1  0  0  0
  1 25  1  0  0  0
  2 26  1  0  0  0
  3 27  1  0  0  0
  4 28  1  0  0  0
  5 29  1  0  0  0
  5 30  1  0  0  0
  6 31  1  0  0  0
  6 32  1  0  0  0
  7 33  1  0  0  0
  7 34  1  0  0  0
  8 35  1  0  0  0
  9 36  1  0  0  0
 10 37  1  0  0  0
 10 38  1  0  0  0
 11 39  1  0  0  0
 12 40  1  0  0  0
 12 41  1  0  0  0
 14 42  1  0  0  0
 15 43  1  0  0  0
 19 44  1  0  0  0
 20 45  1  0  0  0
 21 46  1  0  0  0
 24 47  1  0  0  0
 24 48  1  0  0  0
 24 49  1  0  0  0
M  END
$$$$
