5d24_ligand
  -I-interpret- 

 45 46  0  0  0  0  0  0  0  0999 V2000
    5.3340    7.0240   -3.1250 C   0  0  0  0  0
    4.9880    8.2890   -2.6390 C   0  0  0  0  0
    7.0470    8.2810   -1.3460 C   0  0  0  0  0
   12.6950    5.0670   -0.1980 C   0  0  0  0  0
   11.7470    5.9960    0.2750 C   0  0  0  0  0
    7.3570    7.0060   -1.8330 C   0  0  0  0  0
    6.5110    6.4010   -2.7280 C   0  0  0  0  0
    5.8580    8.9220   -1.7560 C   0  0  0  0  0
   10.5140    5.6210   -0.4470 C   0  0  0  0  0
   12.0290    4.1980   -1.2140 C   0  0  0  0  0
   14.1450    4.9660    0.1340 C   0  0  0  0  0
    9.2050    6.3240   -0.3580 C   0  0  0  0  0
   12.6090    3.0420   -2.0030 C   0  0  0  0  0
   14.8130    6.2330    0.5970 C   0  0  0  0  0
   11.8440    7.1080    1.3170 C   0  0  0  0  0
   10.7410    4.5890   -1.3060 N   0  0  0  0  0
    8.5310    6.2660   -1.5660 N   0  0  0  0  0
   14.7900    3.9500   -0.0750 O   0  0  0  0  0
    8.7800    6.9270    0.6190 O   0  0  0  0  0
    4.5320    6.3320   -3.9870 O   0  0  0  0  0
   11.8880    6.3840    2.6530 C   0  0  0  0  0
    3.1640    6.6970   -4.1310 C   0  0  0  0  0
    2.4910    5.6090   -4.9200 C   0  0  0  0  0
    1.6810    5.9290   -5.7670 O   0  0  0  0  0
    2.8210    4.2500   -4.6500 N   0  0  0  0  0
    4.0580    8.7683   -2.9448 H   0  0  0  0  0
    7.7231    8.7786   -0.6507 H   0  0  0  0  0
    6.7650    5.4210   -3.1320 H   0  0  0  0  0
    5.6202    9.9169   -1.3795 H   0  0  0  0  0
   13.4476    3.3971   -2.6020 H   0  0  0  0  0
   12.9535    2.2704   -1.3145 H   0  0  0  0  0
   11.8417    2.6297   -2.6582 H   0  0  0  0  0
   15.3130    6.0518    1.5485 H   0  0  0  0  0
   15.5458    6.5482   -0.1458 H   0  0  0  0  0
   14.0622    7.0132    0.7224 H   0  0  0  0  0
   11.0013    7.7966    1.2558 H   0  0  0  0  0
   12.7244    7.7322    1.1641 H   0  0  0  0  0
    8.8997    5.6598   -2.2988 H   0  0  0  0  0
   10.9801    5.7932    2.7747 H   0  0  0  0  0
   12.7571    5.7267    2.6802 H   0  0  0  0  0
   11.9582    7.1148    3.4587 H   0  0  0  0  0
    3.0754    7.6537   -4.6457 H   0  0  0  0  0
    2.6929    6.8088   -3.1544 H   0  0  0  0  0
    2.3711    3.5015   -5.1770 H   0  0  0  0  0
    3.5072    4.0252   -3.9296 H   0  0  0  0  0
  1  2  4  0  0  0
  7  1  4  0  0  0
  1 20  1  0  0  0
  8  2  4  0  0  0
  6  3  4  0  0  0
  3  8  4  0  0  0
  5  4  4  0  0  0
 10  4  4  0  0  0
  4 11  1  0  0  0
  9  5  4  0  0  0
  5 15  1  0  0  0
  6  7  4  0  0  0
 17  6  1  0  0  0
 12  9  1  0  0  0
  9 16  4  0  0  0
 10 13  1  0  0  0
 16 10  4  0  0  0
 11 14  1  0  0  0
 11 18  2  0  0  0
 12 17  1  0  0  0
 12 19  2  0  0  0
 15 21  1  0  0  0
 20 22  1  0  0  0
 22 23  1  0  0  0
 23 24  2  0  0  0
 23 25  1  0  0  0
  2 26  1  0  0  0
  3 27  1  0  0  0
  7 28  1  0  0  0
  8 29  1  0  0  0
 13 30  1  0  0  0
 13 31  1  0  0  0
 13 32  1  0  0  0
 14 33  1  0  0  0
 14 34  1  0  0  0
 14 35  1  0  0  0
 15 36  1  0  0  0
 15 37  1  0  0  0
 17 38  1  0  0  0
 21 39  1  0  0  0
 21 40  1  0  0  0
 21 41  1  0  0  0
 22 42  1  0  0  0
 22 43  1  0  0  0
 25 44  1  0  0  0
 25 45  1  0  0  0
M  END
$$$$
