5f04_ligand
  -I-interpret- 

 56 58  0  0  0  0  0  0  0  0999 V2000
   27.7730    9.7060   -2.9850 C   0  0  0  0  0
   27.8990    9.7830   -4.5000 C   0  0  0  0  0
   27.3940    8.4590   -5.0680 C   0  0  0  0  0
   26.9220   13.6650   -1.5050 O   0  0  0  0  0
   27.8860   13.4780   -2.2120 C   0  0  0  0  0
   28.0510   12.2120   -3.0330 C   0  0  0  0  0
   27.3060   11.0370   -2.4050 C   0  0  0  0  0
   26.7070    7.7050   -3.9390 C   0  0  0  0  0
   26.7640    8.5930   -2.7050 C   0  0  0  0  0
   28.8440   14.3760   -2.2920 N   0  0  0  0  0
   29.2710   15.0770   -1.0870 C   0  0  0  0  0
   29.7080   16.4090   -1.4300 N   0  0  0  0  0
   29.2420   16.9660   -2.6720 C   0  0  0  0  0
   29.9430   16.0620   -3.6520 C   0  0  0  0  0
   29.5260   14.6080   -3.5620 C   0  0  0  0  0
   30.5500   17.1360   -0.6030 C   0  0  0  0  0
   31.4320   18.0840   -1.1240 C   0  0  0  0  0
   32.2410   18.7930   -0.2420 C   0  0  0  0  0
   32.1540   18.5520    1.1230 C   0  0  0  0  0
   31.2730   17.6180    1.6280 C   0  0  0  0  0
   30.4710   16.9120    0.7550 C   0  0  0  0  0
   33.0040   19.3040    2.1020 C   0  0  0  0  0
   32.2370   20.4350    2.5700 N   0  3  0  0  0
   32.0050   21.5450    1.6660 C   0  0  0  0  0
   28.7337    9.4941   -2.5156 H   0  0  0  0  0
   28.9364    9.9518   -4.7890 H   0  0  0  0  0
   27.3124   10.6147   -4.8903 H   0  0  0  0  0
   28.2241    7.8747   -5.4650 H   0  0  0  0  0
   26.6955    8.6381   -5.8853 H   0  0  0  0  0
   29.1117   11.9647   -3.0768 H   0  0  0  0  0
   27.6408   12.3893   -4.0272 H   0  0  0  0  0
   27.5040   11.0354   -1.3331 H   0  0  0  0  0
   26.2423   11.1508   -2.6139 H   0  0  0  0  0
   27.2074    6.7549   -3.7517 H   0  0  0  0  0
   25.6736    7.4787   -4.2016 H   0  0  0  0  0
   25.7813    9.0143   -2.4933 H   0  0  0  0  0
   27.0679    8.0140   -1.8329 H   0  0  0  0  0
   30.0952   14.5335   -0.6250 H   0  0  0  0  0
   28.4360   15.1386   -0.3891 H   0  0  0  0  0
   29.4666   18.0249   -2.8000 H   0  0  0  0  0
   28.1571   16.9832   -2.7758 H   0  0  0  0  0
   31.0083   16.1061   -3.4256 H   0  0  0  0  0
   29.6849   16.4097   -4.6523 H   0  0  0  0  0
   28.8520   14.3713   -4.3853 H   0  0  0  0  0
   30.4092   13.9720   -3.6221 H   0  0  0  0  0
   31.4857   18.2647   -2.1976 H   0  0  0  0  0
   32.9420   19.5364   -0.6215 H   0  0  0  0  0
   31.2114   17.4403    2.7017 H   0  0  0  0  0
   29.7702   16.1721    1.1417 H   0  0  0  0  0
   33.9246   19.6407    1.6253 H   0  0  0  0  0
   33.2803   18.6608    2.9375 H   0  0  0  0  0
   32.7856   20.8277    3.3350 H   0  0  0  0  0
   31.3100   20.0602    2.7713 H   0  0  0  0  0
   32.9615   21.9684    1.3595 H   0  0  0  0  0
   31.4653   21.1902    0.7880 H   0  0  0  0  0
   31.4144   22.3078    2.1734 H   0  0  0  0  0
  1  2  1  0  0  0
  7  1  1  0  0  0
  1  9  1  0  0  0
  2  3  1  0  0  0
  3  8  1  0  0  0
  5  4  2  0  0  0
  6  5  1  0  0  0
  5 10  1  0  0  0
  6  7  1  0  0  0
  8  9  1  0  0  0
 10 11  1  0  0  0
 10 15  1  0  0  0
 11 12  1  0  0  0
 12 13  1  0  0  0
 12 16  1  0  0  0
 13 14  1  0  0  0
 14 15  1  0  0  0
 16 17  4  0  0  0
 16 21  4  0  0  0
 17 18  4  0  0  0
 18 19  4  0  0  0
 19 20  4  0  0  0
 19 22  1  0  0  0
 20 21  4  0  0  0
 22 23  1  0  0  0
 23 24  1  0  0  0
  1 25  1  0  0  0
  2 26  1  0  0  0
  2 27  1  0  0  0
  3 28  1  0  0  0
  3 29  1  0  0  0
  6 30  1  0  0  0
  6 31  1  0  0  0
  7 32  1  0  0  0
  7 33  1  0  0  0
  8 34  1  0  0  0
  8 35  1  0  0  0
  9 36  1  0  0  0
  9 37  1  0  0  0
 11 38  1  0  0  0
 11 39  1  0  0  0
 13 40  1  0  0  0
 13 41  1  0  0  0
 14 42  1  0  0  0
 14 43  1  0  0  0
 15 44  1  0  0  0
 15 45  1  0  0  0
 17 46  1  0  0  0
 18 47  1  0  0  0
 20 48  1  0  0  0
 21 49  1  0  0  0
 22 50  1  0  0  0
 22 51  1  0  0  0
 23 52  1  0  0  0
 23 53  1  0  0  0
 24 54  1  0  0  0
 24 55  1  0  0  0
 24 56  1  0  0  0
M  END
$$$$
