4qll_ligand
  -I-interpret- 

 87 90  0  0  0  0  0  0  0  0999 V2000
    2.1130   -1.0090   53.5450 O   0  0  0  0  0
    2.7080   -0.5790   52.3100 C   0  0  0  0  0
    2.6140   -1.6800   51.2560 C   0  0  0  0  0
    3.2150   -2.8850   51.7320 O   0  0  0  0  0
    3.3120   -1.1960   49.9840 C   0  0  0  0  0
    3.4160   -2.2420   48.9990 O   0  0  0  0  0
    2.0410    0.5910   51.8070 O   0  0  0  0  0
    2.5960    1.0990   50.5810 C   0  0  0  0  0
    1.8340    2.3760   50.2240 C   0  0  0  0  0
    0.4330    2.0860   50.1180 O   0  0  0  0  0
    2.5500    0.0320   49.4840 C   0  0  0  0  0
    3.1440    0.4950   48.2690 O   0  0  0  0  0
    2.2590    0.7690   47.1740 C   0  0  0  0  0
    3.0470    1.7070   46.2670 C   0  0  0  0  0
    3.1800    2.9920   46.8900 O   0  0  0  0  0
    2.4650    1.8550   44.8620 C   0  0  0  0  0
    3.4220    2.5910   44.0850 O   0  0  0  0  0
    1.9160   -0.4380   46.4730 O   0  0  0  0  0
    1.2610   -0.2700   45.2070 C   0  0  0  0  0
    0.8590   -1.6530   44.7050 C   0  0  0  0  0
    0.0900   -2.3300   45.7160 O   0  0  0  0  0
    2.1740    0.4860   44.2380 C   0  0  0  0  0
    1.5830    0.6330   42.9290 O   0  0  0  0  0
    2.4460    0.3860   41.7980 C   0  0  0  0  0
    1.6140    0.3150   40.5230 C   0  0  0  0  0
    0.7110   -0.7750   40.6970 O   0  0  0  0  0
    2.4700    0.1040   39.2790 C   0  0  0  0  0
    1.6770    0.2490   38.0870 O   0  0  0  0  0
    3.4150    1.4080   41.5640 O   0  0  0  0  0
    4.3650    1.0580   40.5440 C   0  0  0  0  0
    5.4940    2.0610   40.6410 C   0  0  0  0  0
    5.9570    2.0340   42.0110 O   0  0  0  0  0
    3.6980    1.0130   39.1660 C   0  0  0  0  0
    4.5210    0.4390   38.1260 O   0  0  0  0  0
    5.3690    1.1760   37.1840 C   0  0  0  0  0
    5.7100    0.3300   35.8980 C   0  0  0  0  0
    7.1180    0.1720   35.6370 O   0  0  0  0  0
    5.1600    0.8790   34.5830 C   0  0  0  0  0
    5.0910   -0.1620   33.5690 O   0  0  0  0  0
    3.8010    1.4780   34.9090 C   0  0  0  0  0
    3.1130    1.7920   33.7000 O   0  0  0  0  0
    4.7970    2.4720   36.9280 O   0  0  0  0  0
    4.0870    2.7410   35.7090 C   0  0  0  0  0
    2.8350    3.5360   36.0690 C   0  0  0  0  0
    1.8950    2.7510   36.8350 O   0  0  0  0  0
    2.5709   -1.7898   53.8647 H   0  0  0  0  0
    3.7544   -0.3491   52.5110 H   0  0  0  0  0
    1.5673   -1.8960   51.0421 H   0  0  0  0  0
    2.7643   -3.1728   52.5293 H   0  0  0  0  0
    4.3443   -0.9158   50.1935 H   0  0  0  0  0
    3.9021   -2.9821   49.3699 H   0  0  0  0  0
    3.6513    1.3473   50.6937 H   0  0  0  0  0
    2.1976    2.7606   49.2711 H   0  0  0  0  0
    1.9918    3.1219   51.0030 H   0  0  0  0  0
   -0.0428    2.8891   49.8939 H   0  0  0  0  0
    1.5085   -0.2083   49.2705 H   0  0  0  0  0
    1.3183    1.2055   47.5095 H   0  0  0  0  0
    4.0265    1.2478   46.1333 H   0  0  0  0  0
    3.6770    3.5763   46.3128 H   0  0  0  0  0
    1.5131    2.3851   44.8940 H   0  0  0  0  0
    3.0885    2.7037   43.1919 H   0  0  0  0  0
    0.3593    0.3356   45.2984 H   0  0  0  0  0
    1.7554   -2.2323   44.4838 H   0  0  0  0  0
    0.2576   -1.5494   43.8018 H   0  0  0  0  0
   -0.1611   -3.1998   45.3966 H   0  0  0  0  0
    3.0937   -0.0793   44.0876 H   0  0  0  0  0
    2.9606   -0.5443   42.0384 H   0  0  0  0  0
    1.0915    1.2586   40.3657 H   0  0  0  0  0
    0.1610   -0.8614   39.9149 H   0  0  0  0  0
    2.8496   -0.9123   39.3843 H   0  0  0  0  0
    2.2325    0.1129   37.3160 H   0  0  0  0  0
    4.7660    0.0547   40.6880 H   0  0  0  0  0
    5.1519    3.0588   40.3661 H   0  0  0  0  0
    6.3003    1.8060   39.9533 H   0  0  0  0  0
    6.6774    2.6597   42.1165 H   0  0  0  0  0
    3.4795    2.0455   38.8934 H   0  0  0  0  0
    6.3451    1.3546   37.6351 H   0  0  0  0  0
    5.2304   -0.6106   36.1688 H   0  0  0  0  0
    7.2380   -0.3521   34.8417 H   0  0  0  0  0
    5.8117    1.6427   34.1587 H   0  0  0  0  0
    4.7430    0.2086   32.7547 H   0  0  0  0  0
    3.1717    0.7891   35.4725 H   0  0  0  0  0
    2.2558    2.1698   33.9098 H   0  0  0  0  0
    4.7045    3.3372   35.0371 H   0  0  0  0  0
    2.3480    3.8414   35.1429 H   0  0  0  0  0
    3.1371    4.3907   36.6742 H   0  0  0  0  0
    1.1249    3.2863   37.0398 H   0  0  0  0  0
  1  2  1  0  0  0
  2  3  1  0  0  0
  2  7  1  0  0  0
  3  4  1  0  0  0
  3  5  1  0  0  0
  5  6  1  0  0  0
  5 11  1  0  0  0
  7  8  1  0  0  0
  8  9  1  0  0  0
  8 11  1  0  0  0
  9 10  1  0  0  0
 11 12  1  0  0  0
 12 13  1  0  0  0
 13 14  1  0  0  0
 13 18  1  0  0  0
 14 15  1  0  0  0
 14 16  1  0  0  0
 16 17  1  0  0  0
 16 22  1  0  0  0
 18 19  1  0  0  0
 19 20  1  0  0  0
 19 22  1  0  0  0
 20 21  1  0  0  0
 22 23  1  0  0  0
 23 24  1  0  0  0
 24 25  1  0  0  0
 24 29  1  0  0  0
 25 26  1  0  0  0
 25 27  1  0  0  0
 27 28  1  0  0  0
 27 33  1  0  0  0
 29 30  1  0  0  0
 30 31  1  0  0  0
 30 33  1  0  0  0
 31 32  1  0  0  0
 33 34  1  0  0  0
 34 35  1  0  0  0
 35 36  1  0  0  0
 35 42  1  0  0  0
 36 37  1  0  0  0
 36 38  1  0  0  0
 38 39  1  0  0  0
 38 40  1  0  0  0
 40 41  1  0  0  0
 40 43  1  0  0  0
 42 43  1  0  0  0
 43 44  1  0  0  0
 44 45  1  0  0  0
  1 46  1  0  0  0
  2 47  1  0  0  0
  3 48  1  0  0  0
  4 49  1  0  0  0
  5 50  1  0  0  0
  6 51  1  0  0  0
  8 52  1  0  0  0
  9 53  1  0  0  0
  9 54  1  0  0  0
 10 55  1  0  0  0
 11 56  1  0  0  0
 13 57  1  0  0  0
 14 58  1  0  0  0
 15 59  1  0  0  0
 16 60  1  0  0  0
 17 61  1  0  0  0
 19 62  1  0  0  0
 20 63  1  0  0  0
 20 64  1  0  0  0
 21 65  1  0  0  0
 22 66  1  0  0  0
 24 67  1  0  0  0
 25 68  1  0  0  0
 26 69  1  0  0  0
 27 70  1  0  0  0
 28 71  1  0  0  0
 30 72  1  0  0  0
 31 73  1  0  0  0
 31 74  1  0  0  0
 32 75  1  0  0  0
 33 76  1  0  0  0
 35 77  1  0  0  0
 36 78  1  0  0  0
 37 79  1  0  0  0
 38 80  1  0  0  0
 39 81  1  0  0  0
 40 82  1  0  0  0
 41 83  1  0  0  0
 43 84  1  0  0  0
 44 85  1  0  0  0
 44 86  1  0  0  0
 45 87  1  0  0  0
M  END
$$$$
