4l6s_ligand
  -I-interpret- 

 48 51  0  0  0  0  0  0  0  0999 V2000
    7.9080   -2.1170   -6.8360 C   0  0  0  0  0
    9.3750   -2.5360   -6.8470 C   0  0  0  0  0
    9.5110   -3.9190   -7.3350 O   0  0  0  0  0
   10.7130   -4.5530   -7.1410 C   0  0  0  0  0
   11.1150   -5.5690   -8.0030 C   0  0  0  0  0
   12.3440   -6.2070   -7.7930 C   0  0  0  0  0
   13.1650   -5.8190   -6.7400 C   0  0  0  0  0
   14.4630   -6.5520   -6.5620 C   0  0  0  0  0
   15.6460   -5.8370   -7.0120 N   0  3  0  0  0
   15.5160   -5.4490   -8.4260 C   0  0  0  0  0
   16.6930   -4.5860   -8.7940 C   0  0  0  0  0
   17.9310   -5.3870   -8.5250 C   0  0  0  0  0
   17.9970   -6.3470   -7.6160 C   0  0  0  0  0
   16.8120   -6.7150   -6.7650 C   0  0  0  0  0
   19.1150   -5.1110   -9.3350 C   0  0  0  0  0
   18.9940   -4.8730  -10.7170 C   0  0  0  0  0
   20.1350   -4.6440  -11.4730 C   0  0  0  0  0
   21.3780   -4.6680  -10.8400 C   0  0  0  0  0
   22.8330   -4.3800  -11.7320 Cl  0  0  0  0  0
   21.5000   -4.9190   -9.4830 C   0  0  0  0  0
   20.3730   -5.1510   -8.7260 C   0  0  0  0  0
   12.7740   -4.8050   -5.8590 C   0  0  0  0  0
   11.5710   -4.1410   -6.0980 C   0  0  0  0  0
   11.0820   -3.1840   -5.2090 N   0  0  0  0  0
    9.9750   -2.4380   -5.4510 C   0  0  0  0  0
    9.5260   -1.6910   -4.5610 O   0  0  0  0  0
    7.3497   -2.7708   -6.1659 H   0  0  0  0  0
    7.8284   -1.0865   -6.4899 H   0  0  0  0  0
    7.5015   -2.1954   -7.8443 H   0  0  0  0  0
    9.9100   -1.8604   -7.5144 H   0  0  0  0  0
   10.4777   -5.8662   -8.8359 H   0  0  0  0  0
   12.6583   -7.0114   -8.4581 H   0  0  0  0  0
   14.3962   -7.4568   -7.1661 H   0  0  0  0  0
   14.5852   -6.7155   -5.4913 H   0  0  0  0  0
   15.7676   -4.9646   -6.4977 H   0  0  0  0  0
   14.5882   -4.8972   -8.5768 H   0  0  0  0  0
   15.4952   -6.3385   -9.0557 H   0  0  0  0  0
   16.6945   -3.6679   -8.2064 H   0  0  0  0  0
   16.6435   -4.2966   -9.8437 H   0  0  0  0  0
   18.9350   -6.8854   -7.4804 H   0  0  0  0  0
   16.5234   -7.7366   -7.0121 H   0  0  0  0  0
   17.1007   -6.6064   -5.7195 H   0  0  0  0  0
   18.0118   -4.8686  -11.1897 H   0  0  0  0  0
   20.0613   -4.4488  -12.5428 H   0  0  0  0  0
   22.4848   -4.9328   -9.0159 H   0  0  0  0  0
   20.4611   -5.3641   -7.6607 H   0  0  0  0  0
   13.3961   -4.5396   -5.0042 H   0  0  0  0  0
   11.5822   -3.0375   -4.3322 H   0  0  0  0  0
  1  2  1  0  0  0
  2  3  1  0  0  0
  2 25  1  0  0  0
  3  4  1  0  0  0
  4  5  4  0  0  0
  4 23  4  0  0  0
  5  6  4  0  0  0
  6  7  4  0  0  0
  7  8  1  0  0  0
  7 22  4  0  0  0
  8  9  1  0  0  0
  9 10  1  0  0  0
  9 14  1  0  0  0
 10 11  1  0  0  0
 11 12  1  0  0  0
 12 13  2  0  0  0
 12 15  1  0  0  0
 13 14  1  0  0  0
 15 16  4  0  0  0
 15 21  4  0  0  0
 16 17  4  0  0  0
 17 18  4  0  0  0
 18 19  1  0  0  0
 18 20  4  0  0  0
 20 21  4  0  0  0
 22 23  4  0  0  0
 23 24  1  0  0  0
 24 25  1  0  0  0
 25 26  2  0  0  0
  1 27  1  0  0  0
  1 28  1  0  0  0
  1 29  1  0  0  0
  2 30  1  0  0  0
  5 31  1  0  0  0
  6 32  1  0  0  0
  8 33  1  0  0  0
  8 34  1  0  0  0
  9 35  1  0  0  0
 10 36  1  0  0  0
 10 37  1  0  0  0
 11 38  1  0  0  0
 11 39  1  0  0  0
 13 40  1  0  0  0
 14 41  1  0  0  0
 14 42  1  0  0  0
 16 43  1  0  0  0
 17 44  1  0  0  0
 20 45  1  0  0  0
 21 46  1  0  0  0
 22 47  1  0  0  0
 24 48  1  0  0  0
M  END
$$$$
