4ret_ligand
  -I-interpret- 

119126  0  0  0  0  0  0  0  0999 V2000
  -27.8190  -18.9890   72.8590 C   0  0  0  0  0
  -29.2820  -18.7080   73.1780 C   0  0  0  0  0
  -29.8840  -19.5960   74.2750 C   0  0  0  0  0
  -29.4650  -19.1240   75.5640 O   0  0  0  0  0
  -29.5410  -21.0540   73.8740 C   0  0  0  0  0
  -28.0820  -21.3550   73.5450 C   0  0  0  0  0
  -27.8810  -22.8240   73.1390 C   0  0  0  0  0
  -28.2790  -23.1690   71.6990 C   0  0  0  0  0
  -27.5460  -22.2770   70.6920 C   0  0  0  0  0
  -27.8780  -20.8130   71.0170 C   0  0  0  0  0
  -27.4640  -20.4470   72.4830 C   0  0  0  0  0
  -27.1580  -19.8760   70.0500 C   0  0  0  0  0
  -27.3980  -20.1600   68.5710 C   0  0  0  0  0
  -26.4730  -19.3950   67.8270 O   0  0  0  0  0
  -27.1260  -21.6460   68.1810 C   0  0  0  0  0
  -27.8030  -22.6180   69.2140 C   0  0  0  0  0
  -27.2410  -23.8670   68.9600 O   0  0  0  0  0
  -29.2800  -22.6370   68.7810 C   0  0  0  0  0
  -29.3150  -22.1140   67.3340 C   0  0  0  0  0
  -27.8820  -21.8690   66.8360 C   0  0  0  0  0
  -25.6550  -21.9000   67.9740 C   0  0  0  0  0
  -25.9320  -20.5970   72.5930 C   0  0  0  0  0
  -29.9490  -17.8190   75.8880 C   0  0  0  0  0
  -29.2630  -13.4620   79.0150 C   0  0  0  0  0
  -29.0680  -11.4200   84.0440 C   0  0  0  0  0
  -27.2490  -22.8210   65.8530 C   0  0  0  0  0
  -27.4630  -24.3300   65.8580 C   0  0  0  0  0
  -26.7780  -24.8340   64.7220 O   0  0  0  0  0
  -26.7780  -22.5280   64.6190 C   0  0  0  0  0
  -26.5680  -23.7860   63.8540 C   0  0  0  0  0
  -26.2800  -24.0160   62.7120 O   0  0  0  0  0
  -30.2700  -17.8210   77.3920 C   0  0  0  0  0
  -30.0770  -12.2870   79.5280 C   0  0  0  0  0
  -28.5570  -12.4630   85.0800 C   0  0  0  0  0
  -30.6810  -16.4180   77.8870 C   0  0  0  0  0
  -31.8500  -16.0570   77.2090 O   0  0  0  0  0
  -29.2910  -11.5070   80.5660 C   0  0  0  0  0
  -28.0650  -11.1270   79.9920 O   0  0  0  0  0
  -29.0990  -12.1820   86.4930 C   0  0  0  0  0
  -30.4880  -12.3330   86.4490 O   0  0  0  0  0
  -29.5900  -15.3630   77.5740 C   0  0  0  0  0
  -30.0870  -14.0940   78.0190 O   0  0  0  0  0
  -29.0220  -12.4260   81.7980 C   0  0  0  0  0
  -28.3720  -11.6500   82.8170 O   0  0  0  0  0
  -28.7380  -10.7280   86.8900 C   0  0  0  0  0
  -29.4120  -10.4190   88.0830 O   0  0  0  0  0
  -29.2500  -15.5320   76.0250 C   0  0  0  0  0
  -28.8970  -16.8800   75.7100 O   0  0  0  0  0
  -28.2580  -13.6850   81.2270 C   0  0  0  0  0
  -29.0440  -14.3040   80.1610 O   0  0  0  0  0
  -29.2370   -9.7490   85.7720 C   0  0  0  0  0
  -28.7250  -10.1050   84.4920 O   0  0  0  0  0
  -28.0380  -14.6680   75.6720 C   0  0  0  0  0
  -28.0900  -14.7000   82.3610 C   0  0  0  0  0
  -28.7440   -8.3400   86.1410 C   0  0  0  0  0
  -27.2629  -18.7676   73.7700 H   0  0  0  0  0
  -27.5785  -18.3841   71.9847 H   0  0  0  0  0
  -29.8476  -18.9036   72.2670 H   0  0  0  0  0
  -29.3355  -17.6806   73.5380 H   0  0  0  0  0
  -30.9695  -19.5568   74.3654 H   0  0  0  0  0
  -30.0998  -21.2509   72.9591 H   0  0  0  0  0
  -29.7835  -21.6669   74.7421 H   0  0  0  0  0
  -27.5545  -21.1496   74.4765 H   0  0  0  0  0
  -28.5231  -23.4174   73.7899 H   0  0  0  0  0
  -26.8134  -23.0270   73.2239 H   0  0  0  0  0
  -29.3516  -23.0107   71.5874 H   0  0  0  0  0
  -28.0108  -24.2072   71.5034 H   0  0  0  0  0
  -26.4779  -22.4620   70.8058 H   0  0  0  0  0
  -28.9565  -20.6930   70.9141 H   0  0  0  0  0
  -26.0900  -20.0065   70.2245 H   0  0  0  0  0
  -27.5405  -18.8736   70.2423 H   0  0  0  0  0
  -28.4420  -19.9225   68.3668 H   0  0  0  0  0
  -26.6052  -19.5577   66.8902 H   0  0  0  0  0
  -27.3889  -24.1023   68.0411 H   0  0  0  0  0
  -29.8881  -22.0141   69.4370 H   0  0  0  0  0
  -29.6930  -23.6438   68.8432 H   0  0  0  0  0
  -29.8733  -21.1784   67.3017 H   0  0  0  0  0
  -29.7979  -22.8530   66.6947 H   0  0  0  0  0
  -27.8460  -21.0289   66.1424 H   0  0  0  0  0
  -25.2860  -21.2587   67.1736 H   0  0  0  0  0
  -25.1163  -21.6795   68.8956 H   0  0  0  0  0
  -25.5025  -22.9449   67.7036 H   0  0  0  0  0
  -25.6517  -21.6256   72.3662 H   0  0  0  0  0
  -25.4504  -19.9232   71.8844 H   0  0  0  0  0
  -25.6156  -20.3477   73.6058 H   0  0  0  0  0
  -30.8100  -17.5678   75.2686 H   0  0  0  0  0
  -28.3005  -13.2097   78.5701 H   0  0  0  0  0
  -30.1473  -11.5099   83.9210 H   0  0  0  0  0
  -28.5242  -24.5753   65.8162 H   0  0  0  0  0
  -27.0810  -24.7768   66.7759 H   0  0  0  0  0
  -26.5824  -21.5238   64.2431 H   0  0  0  0  0
  -29.3764  -18.1295   77.9345 H   0  0  0  0  0
  -31.1009  -18.5047   77.5659 H   0  0  0  0  0
  -30.9915  -12.6635   79.9863 H   0  0  0  0  0
  -30.3112  -11.6273   78.6925 H   0  0  0  0  0
  -27.4690  -12.4062   85.1138 H   0  0  0  0  0
  -28.9033  -13.4493   84.7711 H   0  0  0  0  0
  -30.8253  -16.4501   78.9669 H   0  0  0  0  0
  -32.1299  -15.1854   77.4979 H   0  0  0  0  0
  -29.8479  -10.6263   80.8860 H   0  0  0  0  0
  -27.5521  -10.6313   80.6345 H   0  0  0  0  0
  -28.6678  -12.8653   87.2246 H   0  0  0  0  0
  -30.8550  -12.1632   87.3197 H   0  0  0  0  0
  -28.6391  -15.4747   78.0950 H   0  0  0  0  0
  -29.9051  -12.8100   82.3086 H   0  0  0  0  0
  -27.6597  -10.6301   87.0155 H   0  0  0  0  0
  -29.2002   -9.5201   88.3453 H   0  0  0  0  0
  -30.1385  -15.2386   75.4658 H   0  0  0  0  0
  -27.2900  -13.3779   80.8310 H   0  0  0  0  0
  -30.3245   -9.7945   85.7130 H   0  0  0  0  0
  -28.2646  -13.6229   75.8831 H   0  0  0  0  0
  -27.1823  -14.9834   76.2691 H   0  0  0  0  0
  -27.8065  -14.7843   74.6132 H   0  0  0  0  0
  -27.5152  -14.2479   83.1693 H   0  0  0  0  0
  -29.0718  -14.9942   82.7320 H   0  0  0  0  0
  -27.5638  -15.5779   81.9861 H   0  0  0  0  0
  -29.1544   -8.0550   87.1097 H   0  0  0  0  0
  -27.6552   -8.3391   86.1918 H   0  0  0  0  0
  -29.0742   -7.6306   85.3822 H   0  0  0  0  0
  2  1  1  0  0  0
  1 11  1  0  0  0
  3  2  1  0  0  0
  4  3  1  0  0  0
  3  5  1  0  0  0
 23  4  1  0  0  0
  5  6  1  0  0  0
  6  7  1  0  0  0
  6 11  1  0  0  0
  7  8  1  0  0  0
  8  9  1  0  0  0
 10  9  1  0  0  0
  9 16  1  0  0  0
 11 10  1  0  0  0
 10 12  1  0  0  0
 11 22  1  0  0  0
 12 13  1  0  0  0
 13 14  1  0  0  0
 13 15  1  0  0  0
 16 15  1  0  0  0
 15 20  1  0  0  0
 15 21  1  0  0  0
 16 17  1  0  0  0
 16 18  1  0  0  0
 18 19  1  0  0  0
 20 19  1  0  0  0
 20 26  1  0  0  0
 32 23  1  0  0  0
 23 48  1  0  0  0
 33 24  1  0  0  0
 24 42  1  0  0  0
 24 50  1  0  0  0
 25 34  1  0  0  0
 44 25  1  0  0  0
 25 52  1  0  0  0
 26 27  1  0  0  0
 26 29  2  0  0  0
 27 28  1  0  0  0
 30 28  1  0  0  0
 29 30  1  0  0  0
 30 31  2  0  0  0
 35 32  1  0  0  0
 37 33  1  0  0  0
 34 39  1  0  0  0
 35 36  1  0  0  0
 41 35  1  0  0  0
 37 38  1  0  0  0
 43 37  1  0  0  0
 39 40  1  0  0  0
 39 45  1  0  0  0
 42 41  1  0  0  0
 41 47  1  0  0  0
 43 44  1  0  0  0
 43 49  1  0  0  0
 45 46  1  0  0  0
 45 51  1  0  0  0
 47 48  1  0  0  0
 47 53  1  0  0  0
 49 50  1  0  0  0
 49 54  1  0  0  0
 51 52  1  0  0  0
 51 55  1  0  0  0
  1 56  1  0  0  0
  1 57  1  0  0  0
  2 58  1  0  0  0
  2 59  1  0  0  0
  3 60  1  0  0  0
  5 61  1  0  0  0
  5 62  1  0  0  0
  6 63  1  0  0  0
  7 64  1  0  0  0
  7 65  1  0  0  0
  8 66  1  0  0  0
  8 67  1  0  0  0
  9 68  1  0  0  0
 10 69  1  0  0  0
 12 70  1  0  0  0
 12 71  1  0  0  0
 13 72  1  0  0  0
 14 73  1  0  0  0
 17 74  1  0  0  0
 18 75  1  0  0  0
 18 76  1  0  0  0
 19 77  1  0  0  0
 19 78  1  0  0  0
 20 79  1  0  0  0
 21 80  1  0  0  0
 21 81  1  0  0  0
 21 82  1  0  0  0
 22 83  1  0  0  0
 22 84  1  0  0  0
 22 85  1  0  0  0
 23 86  1  0  0  0
 24 87  1  0  0  0
 25 88  1  0  0  0
 27 89  1  0  0  0
 27 90  1  0  0  0
 29 91  1  0  0  0
 32 92  1  0  0  0
 32 93  1  0  0  0
 33 94  1  0  0  0
 33 95  1  0  0  0
 34 96  1  0  0  0
 34 97  1  0  0  0
 35 98  1  0  0  0
 36 99  1  0  0  0
 37100  1  0  0  0
 38101  1  0  0  0
 39102  1  0  0  0
 40103  1  0  0  0
 41104  1  0  0  0
 43105  1  0  0  0
 45106  1  0  0  0
 46107  1  0  0  0
 47108  1  0  0  0
 49109  1  0  0  0
 51110  1  0  0  0
 53111  1  0  0  0
 53112  1  0  0  0
 53113  1  0  0  0
 54114  1  0  0  0
 54115  1  0  0  0
 54116  1  0  0  0
 55117  1  0  0  0
 55118  1  0  0  0
 55119  1  0  0  0
M  END
$$$$
