2j9a_ligand
  -I-interpret- 

110111  0  0  0  0  0  0  0  0999 V2000
   65.9870   53.3170   18.5990 N   0  0  0  0  0
   67.0680   52.6970   19.3510 C   0  0  0  0  0
   66.5840   52.2600   20.7170 C   0  0  0  0  0
   65.8720   53.0300   21.3560 O   0  0  0  0  0
   68.2640   53.6850   19.5190 C   0  0  0  0  0
   66.9970   51.0530   21.1420 N   0  0  0  0  0
   67.8810   50.2480   20.2580 C   0  0  0  0  0
   66.5740   50.5830   22.4990 C   0  0  0  0  0
   65.9140   49.2070   22.4230 C   0  0  0  0  0
   64.6400   49.2980   21.5070 C   0  0  0  0  0
   63.8960   47.9580   21.5030 C   0  0  0  0  0
   63.6570   50.4120   21.9160 C   0  0  0  0  0
   67.7610   50.7820   23.5130 C   0  0  0  0  0
   68.8810   51.1070   23.0840 O   0  0  0  0  0
   67.4060   50.7060   24.8240 N   0  0  0  0  0
   68.2950   51.0230   26.0080 C   0  0  0  0  0
   68.5850   49.9630   27.1120 C   0  0  0  0  0
   68.2460   50.1820   28.2830 O   0  0  0  0  0
   67.5670   52.2200   26.7040 C   0  0  0  0  0
   66.1120   51.8270   26.9990 C   0  0  0  0  0
   65.1340   52.0210   26.0100 C   0  0  0  0  0
   65.7640   51.2550   28.2330 C   0  0  0  0  0
   63.8080   51.6460   26.2260 C   0  0  0  0  0
   64.4360   50.8840   28.4640 C   0  0  0  0  0
   63.4570   51.0750   27.4660 C   0  0  0  0  0
   62.1520   50.6980   27.6950 O   0  0  0  0  0
   69.2620   48.8530   26.8000 N   0  0  0  0  0
   69.7780   48.4390   25.4960 C   0  0  0  0  0
   69.2310   47.0220   25.3090 C   0  0  0  0  0
   69.9540   46.0640   25.6930 O   0  0  0  0  0
   71.3330   48.4580   25.5440 C   0  0  0  0  0
   72.0150   49.7800   25.0910 C   0  0  0  0  0
   71.3460   51.0020   25.2130 C   0  0  0  0  0
   73.3170   49.7660   24.5590 C   0  0  0  0  0
   71.9480   52.1950   24.8060 C   0  0  0  0  0
   73.9300   50.9610   24.1570 C   0  0  0  0  0
   73.2420   52.1830   24.2790 C   0  0  0  0  0
   73.8030   53.3720   23.8970 O   0  0  0  0  0
   68.0790   46.9300   24.8140 O   0  0  0  0  0
   56.1860   53.3800   22.6030 C   0  0  0  0  0
   57.1970   54.5350   22.7250 C   0  0  0  0  0
   58.6770   54.1130   22.5140 C   0  0  0  0  0
   58.9630   53.6830   21.0560 C   0  0  0  0  0
   60.4710   53.8410   20.7380 C   0  0  0  0  0
   60.7490   53.4230   19.2790 C   0  0  0  0  0
   62.1750   53.7310   18.8780 C   0  0  0  0  0
   62.5600   53.0510   17.5410 C   0  0  0  0  0
   61.7610   53.6320   16.4050 N   0  3  0  0  0
   64.0310   53.3640   17.2410 C   0  0  0  0  0
   64.3960   52.9060   15.9630 O   0  0  0  0  0
   64.9870   52.5950   18.1510 C   0  0  0  0  0
   64.7890   51.4130   18.3940 O   0  0  0  0  0
   66.0069   54.3208   18.4188 H   0  0  0  0  0
   67.4035   51.8237   18.7917 H   0  0  0  0  0
   67.9370   54.5561   20.0867 H   0  0  0  0  0
   69.0738   53.1860   20.0512 H   0  0  0  0  0
   68.6137   54.0006   18.5361 H   0  0  0  0  0
   68.8335   50.0750   20.7590 H   0  0  0  0  0
   67.4037   49.2921   20.0421 H   0  0  0  0  0
   68.0516   50.7888   19.3271 H   0  0  0  0  0
   65.7714   51.1936   22.9128 H   0  0  0  0  0
   65.6246   48.8833   23.4228 H   0  0  0  0  0
   66.6161   48.4860   22.0043 H   0  0  0  0  0
   65.0083   49.5444   20.5112 H   0  0  0  0  0
   64.5559   47.1786   21.1219 H   0  0  0  0  0
   63.5892   47.7112   22.5194 H   0  0  0  0  0
   63.0157   48.0346   20.8648 H   0  0  0  0  0
   63.3116   50.2341   22.9344 H   0  0  0  0  0
   64.1618   51.3768   21.8655 H   0  0  0  0  0
   62.8048   50.4103   21.2364 H   0  0  0  0  0
   66.4522   50.4077   25.0284 H   0  0  0  0  0
   69.2881   51.1659   25.5819 H   0  0  0  0  0
   67.5840   53.0894   26.0467 H   0  0  0  0  0
   68.0754   52.4636   27.6369 H   0  0  0  0  0
   65.4156   52.4718   25.0584 H   0  0  0  0  0
   66.5208   51.1019   29.0024 H   0  0  0  0  0
   63.0567   51.7919   25.4499 H   0  0  0  0  0
   64.1551   50.4444   29.4211 H   0  0  0  0  0
   62.0768   50.3295   28.5783 H   0  0  0  0  0
   69.4420   48.2114   27.5723 H   0  0  0  0  0
   69.4805   49.0879   24.6723 H   0  0  0  0  0
   70.7849   46.4068   26.0301 H   0  0  0  0  0
   71.6693   47.6876   24.8502 H   0  0  0  0  0
   71.6080   48.3151   26.5890 H   0  0  0  0  0
   70.3399   51.0239   25.6319 H   0  0  0  0  0
   73.8519   48.8216   24.4588 H   0  0  0  0  0
   71.4074   53.1368   24.8997 H   0  0  0  0  0
   74.9408   50.9439   23.7494 H   0  0  0  0  0
   74.6864   53.2130   23.5566 H   0  0  0  0  0
   56.2549   52.9422   21.6072 H   0  0  0  0  0
   56.4118   52.6206   23.3516 H   0  0  0  0  0
   55.1781   53.7625   22.7642 H   0  0  0  0  0
   57.1163   54.9265   23.7391 H   0  0  0  0  0
   56.9549   55.2572   21.9454 H   0  0  0  0  0
   58.8818   53.2621   23.1637 H   0  0  0  0  0
   59.3091   54.9708   22.7436 H   0  0  0  0  0
   58.3874   54.3136   20.3785 H   0  0  0  0  0
   58.6792   52.6382   20.9298 H   0  0  0  0  0
   61.0477   53.2049   21.4095 H   0  0  0  0  0
   60.7588   54.8835   20.8735 H   0  0  0  0  0
   60.0778   53.9804   18.6256 H   0  0  0  0  0
   60.5892   52.3484   19.1906 H   0  0  0  0  0
   62.8377   53.3529   19.6565 H   0  0  0  0  0
   62.2686   54.8096   18.7517 H   0  0  0  0  0
   62.3730   51.9810   17.6313 H   0  0  0  0  0
   62.0273   53.1730   15.5339 H   0  0  0  0  0
   60.7670   53.4832   16.5790 H   0  0  0  0  0
   61.9492   54.6321   16.3351 H   0  0  0  0  0
   64.1081   54.4443   17.3641 H   0  0  0  0  0
   65.3191   53.1142   15.8013 H   0  0  0  0  0
  1  2  1  0  0  0
 51  1  1  0  0  0
  2  3  1  0  0  0
  2  5  1  0  0  0
  3  4  2  0  0  0
  3  6  1  0  0  0
  6  7  1  0  0  0
  6  8  1  0  0  0
  8  9  1  0  0  0
  8 13  1  0  0  0
  9 10  1  0  0  0
 10 11  1  0  0  0
 10 12  1  0  0  0
 13 14  2  0  0  0
 13 15  1  0  0  0
 15 16  1  0  0  0
 16 17  1  0  0  0
 16 19  1  0  0  0
 17 18  2  0  0  0
 17 27  1  0  0  0
 19 20  1  0  0  0
 20 21  4  0  0  0
 20 22  4  0  0  0
 21 23  4  0  0  0
 22 24  4  0  0  0
 23 25  4  0  0  0
 24 25  4  0  0  0
 25 26  1  0  0  0
 27 28  1  0  0  0
 28 29  1  0  0  0
 28 31  1  0  0  0
 29 30  1  0  0  0
 29 39  2  0  0  0
 31 32  1  0  0  0
 32 33  4  0  0  0
 32 34  4  0  0  0
 33 35  4  0  0  0
 34 36  4  0  0  0
 35 37  4  0  0  0
 36 37  4  0  0  0
 37 38  1  0  0  0
 41 40  1  0  0  0
 42 41  1  0  0  0
 43 42  1  0  0  0
 44 43  1  0  0  0
 45 44  1  0  0  0
 46 45  1  0  0  0
 47 46  1  0  0  0
 47 48  1  0  0  0
 49 47  1  0  0  0
 49 50  1  0  0  0
 49 51  1  0  0  0
 51 52  2  0  0  0
  1 53  1  0  0  0
  2 54  1  0  0  0
  5 55  1  0  0  0
  5 56  1  0  0  0
  5 57  1  0  0  0
  7 58  1  0  0  0
  7 59  1  0  0  0
  7 60  1  0  0  0
  8 61  1  0  0  0
  9 62  1  0  0  0
  9 63  1  0  0  0
 10 64  1  0  0  0
 11 65  1  0  0  0
 11 66  1  0  0  0
 11 67  1  0  0  0
 12 68  1  0  0  0
 12 69  1  0  0  0
 12 70  1  0  0  0
 15 71  1  0  0  0
 16 72  1  0  0  0
 19 73  1  0  0  0
 19 74  1  0  0  0
 21 75  1  0  0  0
 22 76  1  0  0  0
 23 77  1  0  0  0
 24 78  1  0  0  0
 26 79  1  0  0  0
 27 80  1  0  0  0
 28 81  1  0  0  0
 30 82  1  0  0  0
 31 83  1  0  0  0
 31 84  1  0  0  0
 33 85  1  0  0  0
 34 86  1  0  0  0
 35 87  1  0  0  0
 36 88  1  0  0  0
 38 89  1  0  0  0
 40 90  1  0  0  0
 40 91  1  0  0  0
 40 92  1  0  0  0
 41 93  1  0  0  0
 41 94  1  0  0  0
 42 95  1  0  0  0
 42 96  1  0  0  0
 43 97  1  0  0  0
 43 98  1  0  0  0
 44 99  1  0  0  0
 44100  1  0  0  0
 45101  1  0  0  0
 45102  1  0  0  0
 46103  1  0  0  0
 46104  1  0  0  0
 47105  1  0  0  0
 48106  1  0  0  0
 48107  1  0  0  0
 48108  1  0  0  0
 49109  1  0  0  0
 50110  1  0  0  0
M  END
$$$$
