### 
### Created by X-TOOL on Mon Sep 10 21:12:53 2018
### 

@<TRIPOS>MOLECULE
2j9a_ligand
  109   110     1     0     0
SMALL
GAST_HUCK


@<TRIPOS>ATOM
      1 N          65.9870   53.3170   18.5990 N.am      1 ALA        -0.2636
      2 CA         67.0680   52.6970   19.3510 C.3       1 ALA         0.1284
      3 C          66.5840   52.2600   20.7170 C.2       1 ALA         0.2059
      4 O          65.8720   53.0300   21.3560 O.2       1 ALA        -0.3942
      5 CB         68.2640   53.6850   19.5190 C.3       1 ALA        -0.0244
      6 N          66.9970   51.0530   21.1420 N.am      1 MLE        -0.2529
      7 CN         67.8810   50.2480   20.2580 C.3       1 MLE         0.0254
      8 CA         66.5740   50.5830   22.4990 C.3       1 MLE         0.1336
      9 CB         65.9140   49.2070   22.4230 C.3       1 MLE        -0.0099
     10 CG         64.6400   49.2980   21.5070 C.3       1 MLE        -0.0425
     11 CD1        63.8960   47.9580   21.5030 C.3       1 MLE        -0.0625
     12 CD2        63.6570   50.4120   21.9160 C.3       1 MLE        -0.0625
     13 C          67.7610   50.7820   23.5130 C.2       1 MLE         0.2042
     14 O          68.8810   51.1070   23.0840 O.2       1 MLE        -0.3944
     15 N          67.4060   50.7060   24.8240 N.am      1 TYR        -0.2621
     16 CA         68.2950   51.0230   26.0080 C.3       1 TYR         0.1390
     17 C          68.5850   49.9630   27.1120 C.2       1 TYR         0.2053
     18 O          68.2460   50.1820   28.2830 O.2       1 TYR        -0.3942
     19 CB         67.5670   52.2200   26.7040 C.3       1 TYR         0.0163
     20 CG         66.1120   51.8270   26.9990 C.ar      1 TYR        -0.0493
     21 CD1        65.1340   52.0210   26.0100 C.ar      1 TYR        -0.0685
     22 CD2        65.7640   51.2550   28.2330 C.ar      1 TYR        -0.0685
     23 CE1        63.8080   51.6460   26.2260 C.ar      1 TYR        -0.0398
     24 CE2        64.4360   50.8840   28.4640 C.ar      1 TYR        -0.0398
     25 CZ         63.4570   51.0750   27.4660 C.ar      1 TYR         0.0805
     26 OH         62.1520   50.6980   27.6950 O.3       1 TYR        -0.3376
     27 N          69.2620   48.8530   26.8000 N.am      1 TYR        -0.2678
     28 CA         69.7780   48.4390   25.4960 C.3       1 TYR         0.1025
     29 C          69.2310   47.0220   25.3090 C.2       1 TYR         0.0619
     30 O          69.9540   46.0640   25.6930 O.co2     1 TYR        -0.5665
     31 CB         71.3330   48.4580   25.5440 C.3       1 TYR         0.0108
     32 CG         72.0150   49.7800   25.0910 C.ar      1 TYR        -0.0499
     33 CD1        71.3460   51.0020   25.2130 C.ar      1 TYR        -0.0686
     34 CD2        73.3170   49.7660   24.5590 C.ar      1 TYR        -0.0686
     35 CE1        71.9480   52.1950   24.8060 C.ar      1 TYR        -0.0398
     36 CE2        73.9300   50.9610   24.1570 C.ar      1 TYR        -0.0398
     37 CZ         73.2420   52.1830   24.2790 C.ar      1 TYR         0.0805
     38 OH         73.8030   53.3720   23.8970 O.3       1 TYR        -0.3376
     39 OXT        68.0790   46.9300   24.8140 O.co2     1 TYR        -0.5665
     40 C10        56.1860   53.3800   22.6030 C.3       1 AHY        -0.0653
     41 C9         57.1970   54.5350   22.7250 C.3       1 AHY        -0.0559
     42 C8         58.6770   54.1130   22.5140 C.3       1 AHY        -0.0533
     43 C7         58.9630   53.6830   21.0560 C.3       1 AHY        -0.0531
     44 C6         60.4710   53.8410   20.7380 C.3       1 AHY        -0.0529
     45 C5         60.7490   53.4230   19.2790 C.3       1 AHY        -0.0477
     46 C4         62.1750   53.7310   18.8780 C.3       1 AHY        -0.0051
     47 C3         62.5600   53.0510   17.5410 C.3       1 AHY         0.0196
     48 N3         61.7610   53.6320   16.4050 N.4       1 AHY         0.2243
     49 C2         64.0310   53.3640   17.2410 C.3       1 AHY         0.1863
     50 OH2        64.3960   52.9060   15.9630 O.3       1 AHY        -0.3665
     51 C1         64.9870   52.5950   18.1510 C.2       1 AHY         0.2128
     52 O          64.7890   51.4130   18.3940 O.2       1 AHY        -0.3938
     53 H1         66.0065   54.3011   18.4223 H         1 ALA         0.1883
     54 H2         67.4153   51.8119   18.7979 H         1 ALA         0.0797
     55 H3         69.0670   53.1951   20.0893 H         1 ALA         0.0277
     56 H4         67.9257   54.5818   20.0586 H         1 ALA         0.0277
     57 H5         68.6425   53.9745   18.5276 H         1 ALA         0.0277
     58 H6         68.0539   50.7928   19.3181 H         1 MLE         0.0488
     59 H7         67.4004   49.2830   20.0393 H         1 MLE         0.0488
     60 H8         68.8427   50.0728   20.7624 H         1 MLE         0.0488
     61 H9         65.7801   51.2639   22.8397 H         1 MLE         0.0802
     62 H10        65.6197   48.8833   23.4322 H         1 MLE         0.0315
     63 H11        66.6227   48.4814   21.9973 H         1 MLE         0.0315
     64 H12        64.9822   49.5110   20.4835 H         1 MLE         0.0298
     65 H13        63.0073   48.0340   20.8592 H         1 MLE         0.0232
     66 H14        63.5857   47.7078   22.5282 H         1 MLE         0.0232
     67 H15        64.5609   47.1705   21.1186 H         1 MLE         0.0232
     68 H16        64.1809   51.3792   21.9222 H         1 MLE         0.0232
     69 H17        63.2627   50.2022   22.9212 H         1 MLE         0.0232
     70 H18        62.8258   50.4499   21.1965 H         1 MLE         0.0232
     71 H19        66.4709   50.4136   25.0244 H         1 TYR         0.1885
     72 H20        69.2695   51.3443   25.6117 H         1 TYR         0.0821
     73 H21        67.5833   53.0965   26.0396 H         1 TYR         0.0453
     74 H22        68.0798   52.4643   27.6460 H         1 TYR         0.0453
     75 H23        65.4141   52.4693   25.0636 H         1 TYR         0.0530
     76 H24        66.5166   51.1027   28.9982 H         1 TYR         0.0530
     77 H25        63.0609   51.7911   25.4541 H         1 TYR         0.0525
     78 H26        64.1567   50.4469   29.4158 H         1 TYR         0.0525
     79 H27        61.6275   50.8945   26.9277 H         1 TYR         0.2458
     80 H28        69.4384   48.2240   27.5571 H         1 TYR         0.1877
     81 H29        69.4214   49.1028   24.6947 H         1 TYR         0.0747
     82 H30        71.6993   47.6506   24.8929 H         1 TYR         0.0446
     83 H31        71.6397   48.2600   26.5816 H         1 TYR         0.0446
     84 H32        70.3455   51.0238   25.6296 H         1 TYR         0.0530
     85 H33        73.8489   48.8268   24.4594 H         1 TYR         0.0530
     86 H34        71.4104   53.1317   24.8992 H         1 TYR         0.0525
     87 H35        74.9352   50.9439   23.7516 H         1 TYR         0.0525
     88 H36        74.5954   53.5227   24.3988 H         1 TYR         0.2458
     89 H37        55.1684   53.7648   22.7655 H         1 ALA         0.0230
     90 H38        56.4128   52.6128   23.3580 H         1 ALA         0.0230
     91 H39        56.2545   52.9373   21.5983 H         1 ALA         0.0230
     92 H40        57.1029   54.9706   23.7307 H         1 ALA         0.0263
     93 H41        56.9446   55.2951   21.9710 H         1 ALA         0.0263
     94 H42        58.9029   53.2691   23.1824 H         1 ALA         0.0265
     95 H43        59.3268   54.9641   22.7656 H         1 ALA         0.0265
     96 H44        58.3789   54.3138   20.3698 H         1 ALA         0.0265
     97 H45        58.6721   52.6304   20.9238 H         1 ALA         0.0265
     98 H46        61.0554   53.2031   21.4173 H         1 ALA         0.0265
     99 H47        60.7648   54.8917   20.8782 H         1 ALA         0.0265
    100 H48        60.0643   53.9694   18.6136 H         1 ALA         0.0267
    101 H49        60.5743   52.3418   19.1771 H         1 ALA         0.0267
    102 H50        62.8517   53.3715   19.6672 H         1 ALA         0.0322
    103 H51        62.2859   54.8198   18.7677 H         1 ALA         0.0322
    104 H52        62.3969   51.9653   17.6098 H         1 ALA         0.0902
    105 H53        62.0234   53.1791   15.5436 H         1 ALA         0.1999
    106 H54        61.9462   54.6203   16.3349 H         1 ALA         0.1999
    107 H55        60.7785   53.4855   16.5758 H         1 ALA         0.1999
    108 H56        64.1932   54.4481   17.3327 H         1 ALA         0.0896
    109 H57        64.2695   51.9656   15.9168 H         1 ALA         0.2135
@<TRIPOS>BOND
     1    1    2 1  
     2   51    1 am 
     3    2    3 1  
     4    2    5 1  
     5    3    4 2  
     6    3    6 am 
     7    6    7 1  
     8    6    8 1  
     9    8    9 1  
    10    8   13 1  
    11    9   10 1  
    12   10   11 1  
    13   10   12 1  
    14   13   14 2  
    15   13   15 am 
    16   15   16 1  
    17   16   17 1  
    18   16   19 1  
    19   17   18 2  
    20   17   27 am 
    21   19   20 1  
    22   20   21 ar 
    23   20   22 ar 
    24   21   23 ar 
    25   22   24 ar 
    26   23   25 ar 
    27   24   25 ar 
    28   25   26 1  
    29   27   28 1  
    30   28   29 1  
    31   28   31 1  
    32   29   30 ar 
    33   29   39 ar 
    34   31   32 1  
    35   32   33 ar 
    36   32   34 ar 
    37   33   35 ar 
    38   34   36 ar 
    39   35   37 ar 
    40   36   37 ar 
    41   37   38 1  
    42   41   40 1  
    43   42   41 1  
    44   43   42 1  
    45   44   43 1  
    46   45   44 1  
    47   46   45 1  
    48   47   46 1  
    49   47   48 1  
    50   49   47 1  
    51   49   50 1  
    52   49   51 1  
    53   51   52 2  
    54    1   53 1  
    55    2   54 1  
    56    5   55 1  
    57    5   56 1  
    58    5   57 1  
    59    7   58 1  
    60    7   59 1  
    61    7   60 1  
    62    8   61 1  
    63    9   62 1  
    64    9   63 1  
    65   10   64 1  
    66   11   65 1  
    67   11   66 1  
    68   11   67 1  
    69   12   68 1  
    70   12   69 1  
    71   12   70 1  
    72   15   71 1  
    73   16   72 1  
    74   19   73 1  
    75   19   74 1  
    76   21   75 1  
    77   22   76 1  
    78   23   77 1  
    79   24   78 1  
    80   26   79 1  
    81   27   80 1  
    82   28   81 1  
    83   31   82 1  
    84   31   83 1  
    85   33   84 1  
    86   34   85 1  
    87   35   86 1  
    88   36   87 1  
    89   38   88 1  
    90   40   89 1  
    91   40   90 1  
    92   40   91 1  
    93   41   92 1  
    94   41   93 1  
    95   42   94 1  
    96   42   95 1  
    97   43   96 1  
    98   43   97 1  
    99   44   98 1  
   100   44   99 1  
   101   45  100 1  
   102   45  101 1  
   103   46  102 1  
   104   46  103 1  
   105   47  104 1  
   106   48  105 1  
   107   48  106 1  
   108   48  107 1  
   109   49  108 1  
   110   50  109 1  
@<TRIPOS>SUBSTRUCTURE
     1 ALA         1

