3tv8_ligand
  -I-interpret- 

 25 25  0  0  0  0  0  0  0  0999 V2000
  -17.8010   61.5930  105.6910 C   0  0  0  0  0
  -16.9140   60.5440  106.3290 C   0  0  0  0  0
  -15.8610   61.1910  107.0540 O   0  0  0  0  0
  -16.3890   59.6060  105.2450 C   0  0  0  0  0
  -15.4800   58.6600  105.8140 O   0  0  0  0  0
  -17.5530   58.8870  104.5690 C   0  0  0  0  0
  -18.2230   58.0580  105.5260 O   0  0  0  0  0
  -18.5250   59.9010  103.9680 C   0  0  0  0  0
  -18.8440   60.9210  104.9440 N   0  3  0  0  0
  -19.8150   59.2410  103.4970 C   0  0  0  0  0
  -20.6710   60.1880  102.8460 O   0  0  0  0  0
  -17.2120   62.2221  105.0236 H   0  0  0  0  0
  -18.2433   62.2245  106.4615 H   0  0  0  0  0
  -17.4761   59.9404  107.0416 H   0  0  0  0  0
  -16.2407   61.7675  107.7212 H   0  0  0  0  0
  -15.8574   60.1909  104.4944 H   0  0  0  0  0
  -14.7548   59.1278  106.2346 H   0  0  0  0  0
  -17.1696   58.2620  103.7625 H   0  0  0  0  0
  -17.5994   57.4274  105.8936 H   0  0  0  0  0
  -18.0340   60.3479  103.1035 H   0  0  0  0  0
  -19.2712   61.6652  104.3926 H   0  0  0  0  0
  -19.3762   60.4224  105.6571 H   0  0  0  0  0
  -20.3373   58.8374  104.3644 H   0  0  0  0  0
  -19.5645   58.4521  102.7878 H   0  0  0  0  0
  -21.4745   59.7475  102.5598 H   0  0  0  0  0
  1  2  1  0  0  0
  1  9  1  0  0  0
  2  3  1  0  0  0
  2  4  1  0  0  0
  4  5  1  0  0  0
  4  6  1  0  0  0
  6  7  1  0  0  0
  6  8  1  0  0  0
  8  9  1  0  0  0
  8 10  1  0  0  0
 10 11  1  0  0  0
  1 12  1  0  0  0
  1 13  1  0  0  0
  2 14  1  0  0  0
  3 15  1  0  0  0
  4 16  1  0  0  0
  5 17  1  0  0  0
  6 18  1  0  0  0
  7 19  1  0  0  0
  8 20  1  0  0  0
  9 21  1  0  0  0
  9 22  1  0  0  0
 10 23  1  0  0  0
 10 24  1  0  0  0
 11 25  1  0  0  0
M  END
$$$$
