### 
### Created by X-TOOL on Mon Sep 10 21:13:15 2018
### 

@<TRIPOS>MOLECULE
4i33_ligand
  194   193     1     0     0
SMALL
GAST_HUCK


@<TRIPOS>ATOM
      1 N          75.6140   -3.8690   15.0640 N.4       1 LYS         0.2357
      2 CA         75.3860   -4.1000   16.4800 C.3       1 LYS         0.0545
      3 C          76.1470   -3.1100   17.3470 C.2       1 LYS         0.2234
      4 O          76.3010   -3.3000   18.5550 O.2       1 LYS        -0.3911
      5 N          76.6410   -2.0490   16.7240 N.am      1 GLY        -0.2639
      6 CA         77.3710   -1.0390   17.4560 C.3       1 GLY         0.1202
      7 C          76.4490    0.0220   18.0290 C.2       1 GLY         0.2008
      8 O          75.2230   -0.1110   18.0040 O.2       1 GLY        -0.3947
      9 N          77.0510    1.0630   18.5840 N.am      1 SER        -0.2618
     10 CA         76.3120    2.1950   19.0860 C.3       1 SER         0.1539
     11 C          75.9550    3.1420   17.9540 C.2       1 SER         0.2062
     12 O          76.6280    3.1900   16.9230 O.2       1 SER        -0.3943
     13 CB         77.1390    2.9350   20.1380 C.3       1 SER         0.0843
     14 OG         77.5050    2.0540   21.1850 O.3       1 SER        -0.3903
     15 N          74.8860    3.9000   18.1600 N.am      1 VAL        -0.2634
     16 CA         74.6140    5.0610   17.3310 C.3       1 VAL         0.1333
     17 C          75.6560    6.1110   17.6690 C.2       1 VAL         0.2042
     18 O          76.0540    6.2410   18.8290 O.2       1 VAL        -0.3944
     19 CB         73.2240    5.6280   17.6070 C.3       1 VAL        -0.0063
     20 CG1        73.0110    6.9260   16.8230 C.3       1 VAL        -0.0584
     21 CG2        72.1600    4.5760   17.2520 C.3       1 VAL        -0.0584
     22 N          76.0960    6.8490   16.6560 N.am      1 VAL        -0.2635
     23 CA         77.1670    7.8320   16.8140 C.3       1 VAL         0.1332
     24 C          76.7270    9.2330   16.3690 C.2       1 VAL         0.2042
     25 O          76.0710    9.3770   15.3410 O.2       1 VAL        -0.3944
     26 CB         78.4070    7.4240   15.9820 C.3       1 VAL        -0.0063
     27 CG1        79.5200    8.4830   16.1310 C.3       1 VAL        -0.0584
     28 CG2        78.9010    6.0250   16.3960 C.3       1 VAL        -0.0584
     29 N          77.0820   10.2570   17.1410 N.am      1 ILE        -0.2635
     30 CA         76.8300   11.6250   16.7180 C.3       1 ILE         0.1335
     31 C          77.9400   11.9780   15.7420 C.2       1 ILE         0.2042
     32 O          79.1270   11.9500   16.0970 O.2       1 ILE        -0.3944
     33 CB         76.8630   12.6020   17.9060 C.3       1 ILE        -0.0037
     34 CG1        75.6730   12.3430   18.8420 C.3       1 ILE        -0.0491
     35 CG2        76.8840   14.0580   17.4190 C.3       1 ILE        -0.0582
     36 CD1        75.8060   12.9990   20.2130 C.3       1 ILE        -0.0648
     37 N          77.5530   12.2190   14.4950 N.am      1 VAL        -0.2635
     38 CA         78.4800   12.6170   13.4370 C.3       1 VAL         0.1332
     39 C          78.4030   14.1030   13.0390 C.2       1 VAL         0.2039
     40 O          79.1600   14.5530   12.1930 O.2       1 VAL        -0.3944
     41 CB         78.3330   11.6940   12.2120 C.3       1 VAL        -0.0063
     42 CG1        78.6830   10.2370   12.6110 C.3       1 VAL        -0.0584
     43 CG2        76.9110   11.7610   11.6510 C.3       1 VAL        -0.0584
     44 N          77.4790   14.8500   13.6390 N.am      1 GLY        -0.2664
     45 CA         77.3290   16.2620   13.3310 C.3       1 GLY         0.1201
     46 C          76.2200   16.8860   14.1480 C.2       1 GLY         0.2007
     47 O          75.5920   16.2240   14.9740 O.2       1 GLY        -0.3947
     48 N          75.9720   18.1720   13.9430 N.am      1 ARG        -0.2640
     49 CA         74.8880   18.8140   14.6580 C.3       1 ARG         0.1311
     50 C          74.3330   19.9610   13.8500 C.2       1 ARG         0.2039
     51 O          74.9450   20.4170   12.8760 O.2       1 ARG        -0.3944
     52 CB         75.3120   19.3030   16.0470 C.3       1 ARG        -0.0092
     53 CG         76.2870   20.4860   16.0590 C.3       1 ARG        -0.0156
     54 CD         77.7020   20.0080   15.9150 C.3       1 ARG         0.0627
     55 NE         78.6640   21.0420   16.2680 N.pl3     1 ARG        -0.2723
     56 CZ         79.4690   21.0050   17.3290 C.cat     1 ARG         0.2882
     57 NH1        79.4490   19.9770   18.1650 N.pl3     1 ARG        -0.2849
     58 NH2        80.2990   22.0070   17.5450 N.pl3     1 ARG        -0.2849
     59 N          73.1530   20.3950   14.2500 N.am      1 ILE        -0.2635
     60 CA         72.4900   21.5210   13.6220 C.3       1 ILE         0.1335
     61 C          72.1710   22.5170   14.7280 C.2       1 ILE         0.2042
     62 O          71.6450   22.1520   15.7900 O.2       1 ILE        -0.3944
     63 CB         71.2280   21.0680   12.8690 C.3       1 ILE        -0.0037
     64 CG1        71.6280   20.2500   11.6330 C.3       1 ILE        -0.0491
     65 CG2        70.3670   22.2740   12.5030 C.3       1 ILE        -0.0582
     66 CD1        70.5310   19.3650   11.0940 C.3       1 ILE        -0.0648
     67 N          72.5270   23.7720   14.4790 N.am      1 ILE        -0.2635
     68 CA         72.3950   24.8330   15.4510 C.3       1 ILE         0.1335
     69 C          71.2670   25.7150   14.9670 C.2       1 ILE         0.2042
     70 O          71.2820   26.1660   13.8280 O.2       1 ILE        -0.3944
     71 CB         73.6670   25.6970   15.4810 C.3       1 ILE        -0.0037
     72 CG1        74.8980   24.8220   15.7120 C.3       1 ILE        -0.0491
     73 CG2        73.5450   26.8210   16.5190 C.3       1 ILE        -0.0582
     74 CD1        74.9290   24.1920   17.0520 C.3       1 ILE        -0.0648
     75 N          70.2950   25.9520   15.8320 N.am      1 LEU        -0.2637
     76 CA         69.1070   26.7260   15.4730 C.3       1 LEU         0.1312
     77 C          69.2520   28.1890   15.8920 C.2       1 LEU         0.2034
     78 O          69.8880   28.4880   16.9000 O.2       1 LEU        -0.3944
     79 CB         67.8790   26.1030   16.1310 C.3       1 LEU        -0.0101
     80 CG         67.6380   24.6700   15.6700 C.3       1 LEU        -0.0425
     81 CD1        66.4100   24.0750   16.3530 C.3       1 LEU        -0.0625
     82 CD2        67.4690   24.6880   14.1590 C.3       1 LEU        -0.0625
     83 N          68.6950   29.0950   15.0920 N.am      1 SER        -0.2672
     84 CA         68.6800   30.5130   15.4290 C.3       1 SER         0.1173
     85 C          67.2590   31.0620   15.3440 C.2       1 SER         0.0623
     86 O          66.7890   31.7721   16.2727 O.co2     1 SER        -0.5665
     87 CB         69.5840   31.2980   14.4860 C.3       1 SER         0.0789
     88 OG         69.6990   32.6500   14.8990 O.3       1 SER        -0.3910
     89 O          66.5490   30.8029   14.3359 O.co2     1 SER        -0.5665
     90 H1         75.0937   -4.5438   14.5255 H         1 LYS         0.2012
     91 H2         76.5970   -3.9639   14.8620 H         1 LYS         0.2012
     92 H3         75.3095   -2.9391   14.8219 H         1 LYS         0.2012
     93 H4         75.7154   -5.1190   16.7314 H         1 LYS         0.1061
     94 H5         74.3104   -4.0006   16.6876 H         1 LYS         0.1061
     95 H6         76.5072   -1.9466   15.7383 H         1 GLY         0.1882
     96 H7         78.0892   -0.5567   16.7766 H         1 GLY         0.0763
     97 H8         77.9145   -1.5214   18.2818 H         1 GLY         0.0763
     98 H9         78.0483    1.0640   18.6572 H         1 SER         0.1884
     99 H10        75.3836    1.8332   19.5520 H         1 SER         0.0823
    100 H11        76.5436    3.7623   20.5515 H         1 SER         0.0606
    101 H12        78.0484    3.3371   19.6676 H         1 SER         0.0606
    102 H13        76.7208    1.7070   21.5941 H         1 SER         0.2097
    103 H14        74.2553    3.6675   18.9004 H         1 VAL         0.1883
    104 H15        74.6884    4.7829   16.2694 H         1 VAL         0.0802
    105 H16        73.1437    5.8560   18.6801 H         1 VAL         0.0343
    106 H17        72.0059    7.3205   17.0331 H         1 VAL         0.0234
    107 H18        73.1078    6.7240   15.7461 H         1 VAL         0.0234
    108 H19        73.7662    7.6659   17.1267 H         1 VAL         0.0234
    109 H20        72.3430    3.6593   17.8318 H         1 VAL         0.0234
    110 H21        72.2147    4.3472   16.1775 H         1 VAL         0.0234
    111 H22        71.1612    4.9689   17.4929 H         1 VAL         0.0234
    112 H23        75.6806    6.7282   15.7544 H         1 VAL         0.1883
    113 H24        77.4462    7.8705   17.8773 H         1 VAL         0.0802
    114 H25        78.1138    7.3822   14.9226 H         1 VAL         0.0343
    115 H26        80.3946    8.1819   15.5358 H         1 VAL         0.0234
    116 H27        79.8078    8.5661   17.1894 H         1 VAL         0.0234
    117 H28        79.1508    9.4557   15.7739 H         1 VAL         0.0234
    118 H29        78.0842    5.2978   16.2774 H         1 VAL         0.0234
    119 H30        79.2231    6.0462   17.4475 H         1 VAL         0.0234
    120 H31        79.7483    5.7319   15.7587 H         1 VAL         0.0234
    121 H32        77.5262   10.0841   18.0201 H         1 ILE         0.1883
    122 H33        75.8500   11.6892   16.2225 H         1 ILE         0.0803
    123 H34        77.7883   12.4211   18.4726 H         1 ILE         0.0345
    124 H35        75.5769   11.2568   18.9865 H         1 ILE         0.0267
    125 H36        74.7634   12.7308   18.3601 H         1 ILE         0.0267
    126 H37        77.7461   14.2093   16.7527 H         1 ILE         0.0235
    127 H38        76.9661   14.7328   18.2838 H         1 ILE         0.0235
    128 H39        75.9549   14.2750   16.8715 H         1 ILE         0.0235
    129 H40        74.9177   12.7661   20.8186 H         1 ILE         0.0230
    130 H41        75.8913   14.0889   20.0913 H         1 ILE         0.0230
    131 H42        76.7048   12.6149   20.7177 H         1 ILE         0.0230
    132 H43        76.5834   12.1240   14.2693 H         1 VAL         0.1883
    133 H44        79.4924   12.4597   13.8374 H         1 VAL         0.0802
    134 H45        79.0342   12.0270   11.4326 H         1 VAL         0.0343
    135 H46        78.5770    9.5812   11.7342 H         1 VAL         0.0234
    136 H47        78.0006    9.9003   13.4053 H         1 VAL         0.0234
    137 H48        79.7197   10.1958   12.9764 H         1 VAL         0.0234
    138 H49        76.6754   12.7986   11.3721 H         1 VAL         0.0234
    139 H50        76.1988   11.4160   12.4150 H         1 VAL         0.0234
    140 H51        76.8366   11.1167   10.7626 H         1 VAL         0.0234
    141 H52        76.8749   14.4303   14.3165 H         1 GLY         0.1881
    142 H53        77.0931   16.3729   12.2623 H         1 GLY         0.0763
    143 H54        78.2735   16.7800   13.5537 H         1 GLY         0.0763
    144 H55        76.5297   18.6956   13.2989 H         1 ARG         0.1883
    145 H56        74.0887   18.0705   14.7931 H         1 ARG         0.0800
    146 H57        75.7915   18.4629   16.5707 H         1 ARG         0.0313
    147 H58        74.4054   19.6051   16.5917 H         1 ARG         0.0313
    148 H59        76.1843   21.0291   17.0101 H         1 ARG         0.0301
    149 H60        76.0469   21.1604   15.2238 H         1 ARG         0.0301
    150 H61        77.8710   19.7071   14.8706 H         1 ARG         0.0689
    151 H62        77.8534   19.1414   16.5754 H         1 ARG         0.0689
    152 H63        78.7271   21.8643   15.6509 H         1 ARG         0.2642
    153 H64        80.0780   19.9641   18.9806 H         1 ARG         0.2615
    154 H65        78.8045   19.1909   17.9992 H         1 ARG         0.2615
    155 H66        80.3183   22.8083   16.8981 H         1 ARG         0.2615
    156 H67        80.9278   21.9882   18.3606 H         1 ARG         0.2615
    157 H68        72.7007   19.9316   15.0121 H         1 ILE         0.1883
    158 H69        73.1738   21.9907   12.8996 H         1 ILE         0.0803
    159 H70        70.6394   20.4187   13.5338 H         1 ILE         0.0345
    160 H71        72.4833   19.6131   11.9030 H         1 ILE         0.0267
    161 H72        71.9280   20.9495   10.8389 H         1 ILE         0.0267
    162 H73        70.1053   22.8284   13.4163 H         1 ILE         0.0235
    163 H74        69.4475   21.9309   12.0062 H         1 ILE         0.0235
    164 H75        70.9277   22.9319   11.8228 H         1 ILE         0.0235
    165 H76        70.9004   18.8179   10.2141 H         1 ILE         0.0230
    166 H77        69.6689   19.9842   10.8054 H         1 ILE         0.0230
    167 H78        70.2241   18.6478   11.8695 H         1 ILE         0.0230
    168 H79        72.9031   23.9925   13.5790 H         1 ILE         0.1883
    169 H80        72.1835   24.4224   16.4493 H         1 ILE         0.0803
    170 H81        73.7764   26.1703   14.4941 H         1 ILE         0.0345
    171 H82        75.7961   25.4471   15.5998 H         1 ILE         0.0267
    172 H83        74.9078   24.0264   14.9525 H         1 ILE         0.0267
    173 H84        72.6460   27.4188   16.3081 H         1 ILE         0.0235
    174 H85        74.4346   27.4660   16.4674 H         1 ILE         0.0235
    175 H86        73.4669   26.3839   17.5254 H         1 ILE         0.0235
    176 H87        75.8378   23.5798   17.1484 H         1 ILE         0.0230
    177 H88        74.0420   23.5538   17.1777 H         1 ILE         0.0230
    178 H89        74.9303   24.9745   17.8251 H         1 ILE         0.0230
    179 H90        70.3748   25.5905   16.7610 H         1 LEU         0.1883
    180 H91        68.9806   26.6885   14.3809 H         1 LEU         0.0800
    181 H92        66.9966   26.7089   15.8776 H         1 LEU         0.0315
    182 H93        68.0236   26.1038   17.2214 H         1 LEU         0.0315
    183 H94        68.5133   24.0557   15.9277 H         1 LEU         0.0298
    184 H95        66.2597   23.0431   16.0030 H         1 LEU         0.0232
    185 H96        65.5243   24.6786   16.1057 H         1 LEU         0.0232
    186 H97        66.5607   24.0743   17.4426 H         1 LEU         0.0232
    187 H98        68.3673   25.1210   13.6947 H         1 LEU         0.0232
    188 H99        66.5909   25.2958   13.8954 H         1 LEU         0.0232
    189 H100       67.3267   23.6603   13.7937 H         1 LEU         0.0232
    190 H101       68.2750   28.7945   14.2357 H         1 SER         0.1876
    191 H102       69.0485   30.6347   16.4582 H         1 SER         0.0749
    192 H103       69.1593   31.2668   13.4718 H         1 SER         0.0599
    193 H104       70.5831   30.8378   14.4796 H         1 SER         0.0599
    194 H105       70.2661   33.1169   14.2965 H         1 SER         0.2096
@<TRIPOS>BOND
     1    1    2 1  
     2    2    3 1  
     3    3    4 2  
     4    3    5 am 
     5    5    6 1  
     6    6    7 1  
     7    7    8 2  
     8    7    9 am 
     9    9   10 1  
    10   10   11 1  
    11   10   13 1  
    12   11   12 2  
    13   11   15 am 
    14   13   14 1  
    15   15   16 1  
    16   16   17 1  
    17   16   19 1  
    18   17   18 2  
    19   17   22 am 
    20   19   20 1  
    21   19   21 1  
    22   22   23 1  
    23   23   24 1  
    24   23   26 1  
    25   24   25 2  
    26   24   29 am 
    27   26   27 1  
    28   26   28 1  
    29   29   30 1  
    30   30   31 1  
    31   30   33 1  
    32   31   32 2  
    33   31   37 am 
    34   33   34 1  
    35   33   35 1  
    36   34   36 1  
    37   37   38 1  
    38   38   39 1  
    39   38   41 1  
    40   39   40 2  
    41   39   44 am 
    42   41   42 1  
    43   41   43 1  
    44   44   45 1  
    45   45   46 1  
    46   46   47 2  
    47   46   48 am 
    48   48   49 1  
    49   49   50 1  
    50   49   52 1  
    51   50   51 2  
    52   50   59 am 
    53   52   53 1  
    54   53   54 1  
    55   54   55 1  
    56   55   56 ar 
    57   56   57 ar 
    58   56   58 ar 
    59   59   60 1  
    60   60   61 1  
    61   60   63 1  
    62   61   62 2  
    63   61   67 am 
    64   63   64 1  
    65   63   65 1  
    66   64   66 1  
    67   67   68 1  
    68   68   69 1  
    69   68   71 1  
    70   69   70 2  
    71   69   75 am 
    72   71   72 1  
    73   71   73 1  
    74   72   74 1  
    75   75   76 1  
    76   76   77 1  
    77   76   79 1  
    78   77   78 2  
    79   77   83 am 
    80   79   80 1  
    81   80   81 1  
    82   80   82 1  
    83   83   84 1  
    84   84   85 1  
    85   84   87 1  
    86   85   86 ar 
    87   87   88 1  
    88   85   89 ar 
    89    1   90 1  
    90    1   91 1  
    91    1   92 1  
    92    2   93 1  
    93    2   94 1  
    94    5   95 1  
    95    6   96 1  
    96    6   97 1  
    97    9   98 1  
    98   10   99 1  
    99   13  100 1  
   100   13  101 1  
   101   14  102 1  
   102   15  103 1  
   103   16  104 1  
   104   19  105 1  
   105   20  106 1  
   106   20  107 1  
   107   20  108 1  
   108   21  109 1  
   109   21  110 1  
   110   21  111 1  
   111   22  112 1  
   112   23  113 1  
   113   26  114 1  
   114   27  115 1  
   115   27  116 1  
   116   27  117 1  
   117   28  118 1  
   118   28  119 1  
   119   28  120 1  
   120   29  121 1  
   121   30  122 1  
   122   33  123 1  
   123   34  124 1  
   124   34  125 1  
   125   35  126 1  
   126   35  127 1  
   127   35  128 1  
   128   36  129 1  
   129   36  130 1  
   130   36  131 1  
   131   37  132 1  
   132   38  133 1  
   133   41  134 1  
   134   42  135 1  
   135   42  136 1  
   136   42  137 1  
   137   43  138 1  
   138   43  139 1  
   139   43  140 1  
   140   44  141 1  
   141   45  142 1  
   142   45  143 1  
   143   48  144 1  
   144   49  145 1  
   145   52  146 1  
   146   52  147 1  
   147   53  148 1  
   148   53  149 1  
   149   54  150 1  
   150   54  151 1  
   151   55  152 1  
   152   57  153 1  
   153   57  154 1  
   154   58  155 1  
   155   58  156 1  
   156   59  157 1  
   157   60  158 1  
   158   63  159 1  
   159   64  160 1  
   160   64  161 1  
   161   65  162 1  
   162   65  163 1  
   163   65  164 1  
   164   66  165 1  
   165   66  166 1  
   166   66  167 1  
   167   67  168 1  
   168   68  169 1  
   169   71  170 1  
   170   72  171 1  
   171   72  172 1  
   172   73  173 1  
   173   73  174 1  
   174   73  175 1  
   175   74  176 1  
   176   74  177 1  
   177   74  178 1  
   178   75  179 1  
   179   76  180 1  
   180   79  181 1  
   181   79  182 1  
   182   80  183 1  
   183   81  184 1  
   184   81  185 1  
   185   81  186 1  
   186   82  187 1  
   187   82  188 1  
   188   82  189 1  
   189   83  190 1  
   190   84  191 1  
   191   87  192 1  
   192   87  193 1  
   193   88  194 1  
@<TRIPOS>SUBSTRUCTURE
     1 LYS         1

