4i33_ligand
  -I-interpret- 

194193  0  0  0  0  0  0  0  0999 V2000
   75.6140   -3.8690   15.0640 N   0  3  0  0  0
   75.3860   -4.1000   16.4800 C   0  0  0  0  0
   76.1470   -3.1100   17.3470 C   0  0  0  0  0
   76.3010   -3.3000   18.5550 O   0  0  0  0  0
   76.6410   -2.0490   16.7240 N   0  0  0  0  0
   77.3710   -1.0390   17.4560 C   0  0  0  0  0
   76.4490    0.0220   18.0290 C   0  0  0  0  0
   75.2230   -0.1110   18.0040 O   0  0  0  0  0
   77.0510    1.0630   18.5840 N   0  0  0  0  0
   76.3120    2.1950   19.0860 C   0  0  0  0  0
   75.9550    3.1420   17.9540 C   0  0  0  0  0
   76.6280    3.1900   16.9230 O   0  0  0  0  0
   77.1390    2.9350   20.1380 C   0  0  0  0  0
   77.5050    2.0540   21.1850 O   0  0  0  0  0
   74.8860    3.9000   18.1600 N   0  0  0  0  0
   74.6140    5.0610   17.3310 C   0  0  0  0  0
   75.6560    6.1110   17.6690 C   0  0  0  0  0
   76.0540    6.2410   18.8290 O   0  0  0  0  0
   73.2240    5.6280   17.6070 C   0  0  0  0  0
   73.0110    6.9260   16.8230 C   0  0  0  0  0
   72.1600    4.5760   17.2520 C   0  0  0  0  0
   76.0960    6.8490   16.6560 N   0  0  0  0  0
   77.1670    7.8320   16.8140 C   0  0  0  0  0
   76.7270    9.2330   16.3690 C   0  0  0  0  0
   76.0710    9.3770   15.3410 O   0  0  0  0  0
   78.4070    7.4240   15.9820 C   0  0  0  0  0
   79.5200    8.4830   16.1310 C   0  0  0  0  0
   78.9010    6.0250   16.3960 C   0  0  0  0  0
   77.0820   10.2570   17.1410 N   0  0  0  0  0
   76.8300   11.6250   16.7180 C   0  0  0  0  0
   77.9400   11.9780   15.7420 C   0  0  0  0  0
   79.1270   11.9500   16.0970 O   0  0  0  0  0
   76.8630   12.6020   17.9060 C   0  0  0  0  0
   75.6730   12.3430   18.8420 C   0  0  0  0  0
   76.8840   14.0580   17.4190 C   0  0  0  0  0
   75.8060   12.9990   20.2130 C   0  0  0  0  0
   77.5530   12.2190   14.4950 N   0  0  0  0  0
   78.4800   12.6170   13.4370 C   0  0  0  0  0
   78.4030   14.1030   13.0390 C   0  0  0  0  0
   79.1600   14.5530   12.1930 O   0  0  0  0  0
   78.3330   11.6940   12.2120 C   0  0  0  0  0
   78.6830   10.2370   12.6110 C   0  0  0  0  0
   76.9110   11.7610   11.6510 C   0  0  0  0  0
   77.4790   14.8500   13.6390 N   0  0  0  0  0
   77.3290   16.2620   13.3310 C   0  0  0  0  0
   76.2200   16.8860   14.1480 C   0  0  0  0  0
   75.5920   16.2240   14.9740 O   0  0  0  0  0
   75.9720   18.1720   13.9430 N   0  0  0  0  0
   74.8880   18.8140   14.6580 C   0  0  0  0  0
   74.3330   19.9610   13.8500 C   0  0  0  0  0
   74.9450   20.4170   12.8760 O   0  0  0  0  0
   75.3120   19.3030   16.0470 C   0  0  0  0  0
   76.2870   20.4860   16.0590 C   0  0  0  0  0
   77.7020   20.0080   15.9150 C   0  0  0  0  0
   78.6640   21.0420   16.2680 N   0  0  0  0  0
   79.4690   21.0050   17.3290 C   0  0  0  0  0
   79.4490   19.9770   18.1650 N   0  0  0  0  0
   80.2990   22.0070   17.5450 N   0  0  0  0  0
   73.1530   20.3950   14.2500 N   0  0  0  0  0
   72.4900   21.5210   13.6220 C   0  0  0  0  0
   72.1710   22.5170   14.7280 C   0  0  0  0  0
   71.6450   22.1520   15.7900 O   0  0  0  0  0
   71.2280   21.0680   12.8690 C   0  0  0  0  0
   71.6280   20.2500   11.6330 C   0  0  0  0  0
   70.3670   22.2740   12.5030 C   0  0  0  0  0
   70.5310   19.3650   11.0940 C   0  0  0  0  0
   72.5270   23.7720   14.4790 N   0  0  0  0  0
   72.3950   24.8330   15.4510 C   0  0  0  0  0
   71.2670   25.7150   14.9670 C   0  0  0  0  0
   71.2820   26.1660   13.8280 O   0  0  0  0  0
   73.6670   25.6970   15.4810 C   0  0  0  0  0
   74.8980   24.8220   15.7120 C   0  0  0  0  0
   73.5450   26.8210   16.5190 C   0  0  0  0  0
   74.9290   24.1920   17.0520 C   0  0  0  0  0
   70.2950   25.9520   15.8320 N   0  0  0  0  0
   69.1070   26.7260   15.4730 C   0  0  0  0  0
   69.2520   28.1890   15.8920 C   0  0  0  0  0
   69.8880   28.4880   16.9000 O   0  0  0  0  0
   67.8790   26.1030   16.1310 C   0  0  0  0  0
   67.6380   24.6700   15.6700 C   0  0  0  0  0
   66.4100   24.0750   16.3530 C   0  0  0  0  0
   67.4690   24.6880   14.1590 C   0  0  0  0  0
   68.6950   29.0950   15.0920 N   0  0  0  0  0
   68.6800   30.5130   15.4290 C   0  0  0  0  0
   67.2590   31.0620   15.3440 C   0  0  0  0  0
   66.7890   31.7721   16.2727 O   0  0  0  0  0
   69.5840   31.2980   14.4860 C   0  0  0  0  0
   69.6990   32.6500   14.8990 O   0  0  0  0  0
   66.5490   30.8029   14.3359 O   0  0  0  0  0
   75.0871   -4.5523   14.5201 H   0  0  0  0  0
   75.3055   -2.9278   14.8203 H   0  0  0  0  0
   76.6089   -3.9653   14.8609 H   0  0  0  0  0
   75.7342   -5.1040   16.7224 H   0  0  0  0  0
   74.3210   -3.9792   16.6784 H   0  0  0  0  0
   76.5046   -1.9446   15.7186 H   0  0  0  0  0
   78.0651   -0.5541   16.7696 H   0  0  0  0  0
   77.8895   -1.5241   18.2830 H   0  0  0  0  0
   78.0683    1.0641   18.6586 H   0  0  0  0  0
   75.3912    1.8319   19.5425 H   0  0  0  0  0
   76.5435    3.7495   20.5503 H   0  0  0  0  0
   78.0424    3.3259   19.6699 H   0  0  0  0  0
   78.0230    2.5315   21.8371 H   0  0  0  0  0
   74.2427    3.6628   18.9152 H   0  0  0  0  0
   74.6536    4.7761   16.2796 H   0  0  0  0  0
   73.1326    5.8665   18.6666 H   0  0  0  0  0
   73.7599    7.6583   17.1248 H   0  0  0  0  0
   73.1072    6.7245   15.7561 H   0  0  0  0  0
   72.0148    7.3159   17.0320 H   0  0  0  0  0
   72.2442    4.3178   16.1964 H   0  0  0  0  0
   72.3159    3.6842   17.8590 H   0  0  0  0  0
   71.1684    4.9829   17.4498 H   0  0  0  0  0
   75.6723    6.7258   15.7364 H   0  0  0  0  0
   77.4144    7.8578   17.8752 H   0  0  0  0  0
   78.1264    7.3757   14.9298 H   0  0  0  0  0
   79.1529    9.4463   15.7769 H   0  0  0  0  0
   79.8042    8.5644   17.1801 H   0  0  0  0  0
   80.3861    8.1835   15.5408 H   0  0  0  0  0
   79.1709    6.0342   17.4520 H   0  0  0  0  0
   78.1075    5.2967   16.2288 H   0  0  0  0  0
   79.7730    5.7576   15.7991 H   0  0  0  0  0
   77.5350   10.0806   18.0377 H   0  0  0  0  0
   75.8404   11.7037   16.2679 H   0  0  0  0  0
   77.7808   12.4324   18.4690 H   0  0  0  0  0
   75.6174   11.2664   19.0032 H   0  0  0  0  0
   74.7892   12.7671   18.3655 H   0  0  0  0  0
   77.7700   14.2219   16.8056 H   0  0  0  0  0
   75.9897   14.2550   16.8278 H   0  0  0  0  0
   76.9072   14.7272   18.2791 H   0  0  0  0  0
   76.6969   12.6176   20.7120 H   0  0  0  0  0
   75.8905   14.0789   20.0910 H   0  0  0  0  0
   74.9253   12.7675   20.8121 H   0  0  0  0  0
   76.5641   12.1221   14.2648 H   0  0  0  0  0
   79.4778   12.4974   13.8590 H   0  0  0  0  0
   79.0211   12.0298   11.4362 H   0  0  0  0  0
   79.7104   10.1976   12.9729 H   0  0  0  0  0
   78.0062    9.9046   13.3981 H   0  0  0  0  0
   78.5776    9.5882   11.7415 H   0  0  0  0  0
   76.2040   11.4445   12.4179 H   0  0  0  0  0
   76.6884   12.7847   11.3500 H   0  0  0  0  0
   76.8312   11.1013   10.7870 H   0  0  0  0  0
   76.8629   14.4219   14.3300 H   0  0  0  0  0
   77.0813   16.3629   12.2743 H   0  0  0  0  0
   78.2636   16.7706   13.5677 H   0  0  0  0  0
   76.5408   18.7060   13.2860 H   0  0  0  0  0
   74.1118   18.0626   14.8029 H   0  0  0  0  0
   75.8273   18.4704   16.5260 H   0  0  0  0  0
   74.4051   19.6423   16.5475 H   0  0  0  0  0
   76.1882   21.0146   17.0071 H   0  0  0  0  0
   76.0511   21.1457   15.2240 H   0  0  0  0  0
   77.8646   19.7317   14.8732 H   0  0  0  0  0
   77.8470   19.1628   16.5879 H   0  0  0  0  0
   78.7265   21.8563   15.6569 H   0  0  0  0  0
   80.0737   19.9630   18.9712 H   0  0  0  0  0
   78.8089   19.1997   18.0023 H   0  0  0  0  0
   80.3200   22.7993   16.9030 H   0  0  0  0  0
   72.6917   19.9224   15.0273 H   0  0  0  0  0
   73.1303   21.9870   12.8730 H   0  0  0  0  0
   70.6272   20.4269   13.5141 H   0  0  0  0  0
   72.4492   19.5982   11.9312 H   0  0  0  0  0
   71.8832   20.9603   10.8466 H   0  0  0  0  0
   70.0707   22.7967   13.4124 H   0  0  0  0  0
   70.9396   22.9476   11.8654 H   0  0  0  0  0
   69.4779   21.9359   11.9707 H   0  0  0  0  0
   70.2278   18.6549   11.8634 H   0  0  0  0  0
   69.6774   19.9797   10.8084 H   0  0  0  0  0
   70.8982   18.8234   10.2222 H   0  0  0  0  0
   72.9106   23.9969   13.5610 H   0  0  0  0  0
   72.2198   24.4145   16.4421 H   0  0  0  0  0
   73.7880   26.1797   14.5112 H   0  0  0  0  0
   75.7763   25.4623   15.6297 H   0  0  0  0  0
   74.8751   24.0211   14.9729 H   0  0  0  0  0
   72.6962   27.4565   16.2664 H   0  0  0  0  0
   73.3938   26.3865   17.5071 H   0  0  0  0  0
   74.4586   27.4155   16.5180 H   0  0  0  0  0
   74.9302   24.9683   17.8171 H   0  0  0  0  0
   74.0496   23.5599   17.1753 H   0  0  0  0  0
   75.8299   23.5857   17.1463 H   0  0  0  0  0
   70.3764   25.5833   16.7795 H   0  0  0  0  0
   68.9903   26.7036   14.3895 H   0  0  0  0  0
   67.0089   26.6978   15.8533 H   0  0  0  0  0
   68.0444   26.0878   17.2083 H   0  0  0  0  0
   68.4857   24.0414   15.9427 H   0  0  0  0  0
   66.5606   24.0749   17.4325 H   0  0  0  0  0
   65.5332   24.6740   16.1072 H   0  0  0  0  0
   66.2622   23.0526   16.0054 H   0  0  0  0  0
   66.6185   25.3175   13.8973 H   0  0  0  0  0
   68.3729   25.0864   13.6983 H   0  0  0  0  0
   67.2948   23.6729   13.8020 H   0  0  0  0  0
   68.2666   28.7885   14.2185 H   0  0  0  0  0
   69.0492   30.6233   16.4486 H   0  0  0  0  0
   67.4501   31.8751   16.9611 H   0  0  0  0  0
   69.1510   31.2738   13.4860 H   0  0  0  0  0
   70.5752   30.8447   14.4942 H   0  0  0  0  0
   70.2721   33.1218   14.2902 H   0  0  0  0  0
  1  2  1  0  0  0
  2  3  1  0  0  0
  3  4  2  0  0  0
  3  5  1  0  0  0
  5  6  1  0  0  0
  6  7  1  0  0  0
  7  8  2  0  0  0
  7  9  1  0  0  0
  9 10  1  0  0  0
 10 11  1  0  0  0
 10 13  1  0  0  0
 11 12  2  0  0  0
 11 15  1  0  0  0
 13 14  1  0  0  0
 15 16  1  0  0  0
 16 17  1  0  0  0
 16 19  1  0  0  0
 17 18  2  0  0  0
 17 22  1  0  0  0
 19 20  1  0  0  0
 19 21  1  0  0  0
 22 23  1  0  0  0
 23 24  1  0  0  0
 23 26  1  0  0  0
 24 25  2  0  0  0
 24 29  1  0  0  0
 26 27  1  0  0  0
 26 28  1  0  0  0
 29 30  1  0  0  0
 30 31  1  0  0  0
 30 33  1  0  0  0
 31 32  2  0  0  0
 31 37  1  0  0  0
 33 34  1  0  0  0
 33 35  1  0  0  0
 34 36  1  0  0  0
 37 38  1  0  0  0
 38 39  1  0  0  0
 38 41  1  0  0  0
 39 40  2  0  0  0
 39 44  1  0  0  0
 41 42  1  0  0  0
 41 43  1  0  0  0
 44 45  1  0  0  0
 45 46  1  0  0  0
 46 47  2  0  0  0
 46 48  1  0  0  0
 48 49  1  0  0  0
 49 50  1  0  0  0
 49 52  1  0  0  0
 50 51  2  0  0  0
 50 59  1  0  0  0
 52 53  1  0  0  0
 53 54  1  0  0  0
 54 55  1  0  0  0
 55 56  1  0  0  0
 56 57  1  0  0  0
 56 58  2  0  0  0
 59 60  1  0  0  0
 60 61  1  0  0  0
 60 63  1  0  0  0
 61 62  2  0  0  0
 61 67  1  0  0  0
 63 64  1  0  0  0
 63 65  1  0  0  0
 64 66  1  0  0  0
 67 68  1  0  0  0
 68 69  1  0  0  0
 68 71  1  0  0  0
 69 70  2  0  0  0
 69 75  1  0  0  0
 71 72  1  0  0  0
 71 73  1  0  0  0
 72 74  1  0  0  0
 75 76  1  0  0  0
 76 77  1  0  0  0
 76 79  1  0  0  0
 77 78  2  0  0  0
 77 83  1  0  0  0
 79 80  1  0  0  0
 80 81  1  0  0  0
 80 82  1  0  0  0
 83 84  1  0  0  0
 84 85  1  0  0  0
 84 87  1  0  0  0
 85 86  1  0  0  0
 87 88  1  0  0  0
 85 89  2  0  0  0
  1 90  1  0  0  0
  1 91  1  0  0  0
  1 92  1  0  0  0
  2 93  1  0  0  0
  2 94  1  0  0  0
  5 95  1  0  0  0
  6 96  1  0  0  0
  6 97  1  0  0  0
  9 98  1  0  0  0
 10 99  1  0  0  0
 13100  1  0  0  0
 13101  1  0  0  0
 14102  1  0  0  0
 15103  1  0  0  0
 16104  1  0  0  0
 19105  1  0  0  0
 20106  1  0  0  0
 20107  1  0  0  0
 20108  1  0  0  0
 21109  1  0  0  0
 21110  1  0  0  0
 21111  1  0  0  0
 22112  1  0  0  0
 23113  1  0  0  0
 26114  1  0  0  0
 27115  1  0  0  0
 27116  1  0  0  0
 27117  1  0  0  0
 28118  1  0  0  0
 28119  1  0  0  0
 28120  1  0  0  0
 29121  1  0  0  0
 30122  1  0  0  0
 33123  1  0  0  0
 34124  1  0  0  0
 34125  1  0  0  0
 35126  1  0  0  0
 35127  1  0  0  0
 35128  1  0  0  0
 36129  1  0  0  0
 36130  1  0  0  0
 36131  1  0  0  0
 37132  1  0  0  0
 38133  1  0  0  0
 41134  1  0  0  0
 42135  1  0  0  0
 42136  1  0  0  0
 42137  1  0  0  0
 43138  1  0  0  0
 43139  1  0  0  0
 43140  1  0  0  0
 44141  1  0  0  0
 45142  1  0  0  0
 45143  1  0  0  0
 48144  1  0  0  0
 49145  1  0  0  0
 52146  1  0  0  0
 52147  1  0  0  0
 53148  1  0  0  0
 53149  1  0  0  0
 54150  1  0  0  0
 54151  1  0  0  0
 55152  1  0  0  0
 57153  1  0  0  0
 57154  1  0  0  0
 58155  1  0  0  0
 59156  1  0  0  0
 60157  1  0  0  0
 63158  1  0  0  0
 64159  1  0  0  0
 64160  1  0  0  0
 65161  1  0  0  0
 65162  1  0  0  0
 65163  1  0  0  0
 66164  1  0  0  0
 66165  1  0  0  0
 66166  1  0  0  0
 67167  1  0  0  0
 68168  1  0  0  0
 71169  1  0  0  0
 72170  1  0  0  0
 72171  1  0  0  0
 73172  1  0  0  0
 73173  1  0  0  0
 73174  1  0  0  0
 74175  1  0  0  0
 74176  1  0  0  0
 74177  1  0  0  0
 75178  1  0  0  0
 76179  1  0  0  0
 79180  1  0  0  0
 79181  1  0  0  0
 80182  1  0  0  0
 81183  1  0  0  0
 81184  1  0  0  0
 81185  1  0  0  0
 82186  1  0  0  0
 82187  1  0  0  0
 82188  1  0  0  0
 83189  1  0  0  0
 84190  1  0  0  0
 86191  1  0  0  0
 87192  1  0  0  0
 87193  1  0  0  0
 88194  1  0  0  0
M  END
$$$$
