1q83_ligand
  -I-interpret- 

 95102  0  0  0  0  0  0  0  0999 V2000
   38.9010   20.9180   11.4650 N   0  0  0  0  0
   39.1050   22.2690   11.2770 C   0  0  0  0  0
   40.2920   22.9460   11.6000 C   0  0  0  0  0
   40.4080   24.2850   11.3790 C   0  0  0  0  0
   39.3830   25.1300   10.7970 C   0  0  0  0  0
   38.0960   23.0700   10.7510 C   0  0  0  0  0
   38.1150   24.4880   10.5410 C   0  0  0  0  0
   37.1640   25.1420    9.7080 N   0  0  0  0  0
   37.4200   26.2990    9.0340 C   0  0  0  0  0
   36.3970   26.9140    8.1160 C   0  0  0  0  0
   35.5300   27.9320    8.5560 C   0  0  0  0  0
   34.5990   28.5070    7.6820 C   0  0  0  0  0
   34.5100   28.0660    6.3530 C   0  0  0  0  0
   35.3570   27.0520    5.8830 C   0  0  0  0  0
   36.2810   26.4960    6.7660 C   0  0  0  0  0
   38.6980   26.9340    9.1710 C   0  0  0  0  0
   38.9430   28.2670    8.6300 C   0  0  0  0  0
   39.6940   26.3720   10.0720 C   0  0  0  0  0
   40.8030   27.2530   10.3770 C   0  0  0  0  0
   40.9740   28.5160    9.8550 C   0  0  0  0  0
   40.0270   29.0850    8.9430 C   0  0  0  0  0
   40.1590   30.3490    8.3960 N   0  0  0  0  0
   35.8120   24.5110    9.5120 C   0  0  0  0  0
   35.6220   23.5010    8.3590 C   0  0  0  0  0
   34.1670   23.0050    8.1460 C   0  0  0  0  0
   33.4440   22.7850    9.4740 C   0  0  0  0  0
   32.1100   22.0620    9.3630 C   0  0  0  0  0
   31.3560   22.3370   10.6500 C   0  0  0  0  0
   31.1550   21.2470   11.6500 C   0  0  0  0  0
   31.1690   21.1640   12.9950 N   0  0  0  0  0
   30.8620   19.9550   13.4210 N   0  0  0  0  0
   30.6140   19.1340   12.4430 N   0  0  0  0  0
   30.7900   19.9420   11.4160 C   0  0  0  0  0
   31.4670   22.2890   13.8610 C   0  0  0  0  0
   30.2140   23.1250   14.1090 C   0  0  0  0  0
   29.3190   22.4800   15.0820 N   0  0  0  0  0
   28.0830   22.0010   14.6850 C   0  0  0  0  0
   27.1280   22.7250   13.9170 C   0  0  0  0  0
   27.2380   24.1160   13.5150 C   0  0  0  0  0
   25.9150   22.0810   13.5640 C   0  0  0  0  0
   24.9380   22.8280   12.8140 C   0  0  0  0  0
   25.1060   24.1260   12.4510 C   0  0  0  0  0
   26.2980   24.7910   12.8130 C   0  0  0  0  0
   25.6220   20.8320   13.9560 N   0  0  0  0  0
   26.5130   20.1200   14.6760 C   0  0  0  0  0
   26.1340   18.8120   15.1710 C   0  0  0  0  0
   27.7540   20.6860   15.1080 C   0  0  0  0  0
   28.4560   19.8840   16.0930 C   0  0  0  0  0
   28.0000   18.6590   16.5150 C   0  0  0  0  0
   27.0180   17.9550   15.7610 C   0  0  0  0  0
   39.6416   20.3410   11.8637 H   0  0  0  0  0
   38.0095   20.4958   11.2054 H   0  0  0  0  0
   41.1279   22.3952   12.0313 H   0  0  0  0  0
   41.3472   24.7599   11.6625 H   0  0  0  0  0
   37.1787   22.5563   10.4634 H   0  0  0  0  0
   35.5839   28.2766    9.5887 H   0  0  0  0  0
   33.9407   29.3005    8.0357 H   0  0  0  0  0
   33.7778   28.5145    5.6815 H   0  0  0  0  0
   35.2942   26.7067    4.8511 H   0  0  0  0  0
   36.9413   25.7078    6.4041 H   0  0  0  0  0
   38.2146   28.6569    7.9190 H   0  0  0  0  0
   41.5593   26.8887   11.0722 H   0  0  0  0  0
   41.8507   29.0964   10.1426 H   0  0  0  0  0
   39.4538   30.7006    7.7483 H   0  0  0  0  0
   40.9615   30.9292    8.6404 H   0  0  0  0  0
   35.1454   25.3399    9.2740 H   0  0  0  0  0
   35.6334   23.9378   10.4218 H   0  0  0  0  0
   36.2174   22.6235    8.6111 H   0  0  0  0  0
   35.9144   24.0141    7.4429 H   0  0  0  0  0
   34.2029   22.0547    7.6133 H   0  0  0  0  0
   33.6249   23.7639    7.5818 H   0  0  0  0  0
   33.2354   23.7717    9.8876 H   0  0  0  0  0
   34.0926   22.1594   10.0872 H   0  0  0  0  0
   32.2593   20.9915    9.2217 H   0  0  0  0  0
   31.5469   22.4168    8.4998 H   0  0  0  0  0
   30.3483   22.5946   10.3239 H   0  0  0  0  0
   31.9686   23.0729   11.1709 H   0  0  0  0  0
   30.6484   19.5811   10.3973 H   0  0  0  0  0
   32.2188   22.9147   13.3800 H   0  0  0  0  0
   31.8337   21.9117   14.8156 H   0  0  0  0  0
   29.6784   23.2323   13.1657 H   0  0  0  0  0
   30.5181   24.0925   14.5083 H   0  0  0  0  0
   29.6111   22.3853   16.0547 H   0  0  0  0  0
   28.1419   24.6549   13.7988 H   0  0  0  0  0
   24.0158   22.3253   12.5226 H   0  0  0  0  0
   24.3316   24.6471   11.8881 H   0  0  0  0  0
   26.4586   25.8317   12.5315 H   0  0  0  0  0
   25.8393   18.2803   14.2663 H   0  0  0  0  0
   25.4379   19.0440   15.9770 H   0  0  0  0  0
   28.4052   20.4942   16.9948 H   0  0  0  0  0
   29.3959   19.6436   15.5961 H   0  0  0  0  0
   27.5098   18.8678   17.4659 H   0  0  0  0  0
   28.8799   18.0168   16.4761 H   0  0  0  0  0
   27.5231   17.3869   14.9799 H   0  0  0  0  0
   26.4671   17.3002   16.4361 H   0  0  0  0  0
  1  2  1  0  0  0
  2  3  4  0  0  0
  2  6  4  0  0  0
  3  4  4  0  0  0
  4  5  4  0  0  0
  5  7  4  0  0  0
  5 18  4  0  0  0
  6  7  4  0  0  0
  7  8  4  0  0  0
  8  9  4  0  0  0
  8 23  1  0  0  0
  9 10  1  0  0  0
  9 16  4  0  0  0
 10 11  4  0  0  0
 10 15  4  0  0  0
 11 12  4  0  0  0
 12 13  4  0  0  0
 13 14  4  0  0  0
 14 15  4  0  0  0
 16 17  4  0  0  0
 16 18  4  0  0  0
 17 21  4  0  0  0
 18 19  4  0  0  0
 19 20  4  0  0  0
 20 21  4  0  0  0
 21 22  1  0  0  0
 23 24  1  0  0  0
 24 25  1  0  0  0
 25 26  1  0  0  0
 26 27  1  0  0  0
 27 28  1  0  0  0
 28 29  1  0  0  0
 29 30  4  0  0  0
 29 33  4  0  0  0
 30 31  4  0  0  0
 30 34  1  0  0  0
 31 32  4  0  0  0
 32 33  4  0  0  0
 34 35  1  0  0  0
 35 36  1  0  0  0
 36 37  1  0  0  0
 37 38  4  0  0  0
 37 47  4  0  0  0
 38 39  4  0  0  0
 38 40  4  0  0  0
 39 43  4  0  0  0
 40 41  4  0  0  0
 40 44  4  0  0  0
 41 42  4  0  0  0
 42 43  4  0  0  0
 44 45  4  0  0  0
 45 46  1  0  0  0
 45 47  4  0  0  0
 46 50  1  0  0  0
 47 48  1  0  0  0
 48 49  1  0  0  0
 49 50  1  0  0  0
  1 51  1  0  0  0
  1 52  1  0  0  0
  3 53  1  0  0  0
  4 54  1  0  0  0
  6 55  1  0  0  0
 11 56  1  0  0  0
 12 57  1  0  0  0
 13 58  1  0  0  0
 14 59  1  0  0  0
 15 60  1  0  0  0
 17 61  1  0  0  0
 19 62  1  0  0  0
 20 63  1  0  0  0
 22 64  1  0  0  0
 22 65  1  0  0  0
 23 66  1  0  0  0
 23 67  1  0  0  0
 24 68  1  0  0  0
 24 69  1  0  0  0
 25 70  1  0  0  0
 25 71  1  0  0  0
 26 72  1  0  0  0
 26 73  1  0  0  0
 27 74  1  0  0  0
 27 75  1  0  0  0
 28 76  1  0  0  0
 28 77  1  0  0  0
 33 78  1  0  0  0
 34 79  1  0  0  0
 34 80  1  0  0  0
 35 81  1  0  0  0
 35 82  1  0  0  0
 36 83  1  0  0  0
 39 84  1  0  0  0
 41 85  1  0  0  0
 42 86  1  0  0  0
 43 87  1  0  0  0
 46 88  1  0  0  0
 46 89  1  0  0  0
 48 90  1  0  0  0
 48 91  1  0  0  0
 49 92  1  0  0  0
 49 93  1  0  0  0
 50 94  1  0  0  0
 50 95  1  0  0  0
M  END
$$$$
