6qft_ligand
  -I-interpret- 

 38 40  0  0  0  0  0  0  0  0999 V2000
  -22.0320   14.3390   -6.4210 C   0  0  0  0  0
  -24.6210    8.1520   -4.7330 C   0  0  0  0  0
  -25.5690   10.4470   -5.4780 C   0  0  0  0  0
  -24.0540    4.4310   -5.1650 N   0  0  0  0  0
  -24.0300    5.6850   -4.6560 C   0  0  0  0  0
  -24.3350   13.4880   -6.1520 C   0  0  0  0  0
  -25.2910    8.9890   -5.5520 N   0  0  0  0  0
  -27.0720   10.6850   -5.5510 C   0  0  0  0  0
  -22.8830   13.0950   -6.2910 C   0  0  0  0  0
  -23.4020    5.9610   -3.4900 N   0  0  0  0  0
  -23.3760    7.2080   -2.9790 C   0  0  0  0  0
  -24.6370   14.6040   -5.7620 O   0  0  0  0  0
  -24.6900    6.8140   -5.3500 C   0  0  0  0  0
  -25.4710    7.0690   -6.5770 C   0  0  0  0  0
  -27.3850   12.1770   -5.5430 C   0  0  0  0  0
  -26.6450   12.8950   -6.6650 C   0  0  0  0  0
  -24.9020   11.1600   -6.6480 C   0  0  0  0  0
  -25.9830    5.5560   -8.0120 I   0  0  0  0  0
  -23.9550    8.2760   -3.5600 N   0  0  0  0  0
  -25.8290    8.3620   -6.7000 N   0  0  0  0  0
  -25.2410   12.5650   -6.4690 N   0  0  0  0  0
  -22.3426   14.8996   -7.3027 H   0  0  0  0  0
  -22.1574   14.9579   -5.5325 H   0  0  0  0  0
  -20.9851   14.0526   -6.5211 H   0  0  0  0  0
  -25.1761   10.8347   -4.5381 H   0  0  0  0  0
  -23.5921    3.6697   -4.6675 H   0  0  0  0  0
  -24.5340    4.2473   -6.0460 H   0  0  0  0  0
  -27.5436   10.2223   -4.6840 H   0  0  0  0  0
  -27.4520   10.2512   -6.4759 H   0  0  0  0  0
  -22.5731   12.5342   -5.4092 H   0  0  0  0  0
  -22.7584   12.4759   -7.1794 H   0  0  0  0  0
  -22.8529    7.3618   -2.0352 H   0  0  0  0  0
  -27.0662   12.5965   -4.5888 H   0  0  0  0  0
  -28.4569   12.3107   -5.6889 H   0  0  0  0  0
  -26.8132   13.9715   -6.6330 H   0  0  0  0  0
  -26.9989   12.5792   -7.6464 H   0  0  0  0  0
  -25.2494   10.7777   -7.6078 H   0  0  0  0  0
  -23.8237   11.0008   -6.6591 H   0  0  0  0  0
  9  1  1  0  0  0
  7  2  4  0  0  0
  2 13  4  0  0  0
  2 19  4  0  0  0
  3  7  1  0  0  0
  8  3  1  0  0  0
  3 17  1  0  0  0
  5  4  1  0  0  0
  5 10  4  0  0  0
 13  5  4  0  0  0
  6  9  1  0  0  0
  6 12  2  0  0  0
 21  6  1  0  0  0
  7 20  4  0  0  0
 15  8  1  0  0  0
 11 10  4  0  0  0
 19 11  4  0  0  0
 14 13  4  0  0  0
 14 18  1  0  0  0
 20 14  4  0  0  0
 16 15  1  0  0  0
 16 21  1  0  0  0
 17 21  1  0  0  0
  1 22  1  0  0  0
  1 23  1  0  0  0
  1 24  1  0  0  0
  3 25  1  0  0  0
  4 26  1  0  0  0
  4 27  1  0  0  0
  8 28  1  0  0  0
  8 29  1  0  0  0
  9 30  1  0  0  0
  9 31  1  0  0  0
 11 32  1  0  0  0
 15 33  1  0  0  0
 15 34  1  0  0  0
 16 35  1  0  0  0
 16 36  1  0  0  0
 17 37  1  0  0  0
 17 38  1  0  0  0
M  END
$$$$
