1srg_ligand
  -I-interpret- 

 31 32  0  0  0  0  0  0  0  0999 V2000
   33.3510   12.1830   -5.4430 C   0  0  0  0  0
   34.5890   12.1050   -4.8280 C   0  0  0  0  0
   34.8660   11.0850   -3.9010 C   0  0  0  0  0
   33.8790   10.1440   -3.6300 C   0  0  0  0  0
   32.6300   10.1870   -4.2640 C   0  0  0  0  0
   32.3580   11.2070   -5.1810 C   0  0  0  0  0
   31.7400   14.1650   -8.0990 C   0  0  0  0  0
   32.4780   15.3510   -8.1450 C   0  0  0  0  0
   32.0550   16.4220   -8.9240 C   0  0  0  0  0
   30.8620   16.2980   -9.6430 C   0  0  0  0  0
   30.0220   15.2040   -9.6590 C   0  0  0  0  0
   30.5500   14.0100   -8.7750 C   0  0  0  0  0
   35.6590   13.1820   -5.0410 C   0  0  0  0  0
   32.8480   17.7280   -8.9480 C   0  0  0  0  0
   33.0450   13.2660   -6.3890 N   0  0  0  0  0
   32.1540   13.0140   -7.2740 N   0  0  0  0  0
   35.4960   14.1610   -5.7470 O   0  0  0  0  0
   36.8220   13.0410   -4.2150 O   0  0  0  0  0
   30.4180   17.4680  -10.4760 O   0  0  0  0  0
   35.8351   11.0329   -3.4047 H   0  0  0  0  0
   34.0816    9.3538   -2.9070 H   0  0  0  0  0
   31.8762    9.4310   -4.0440 H   0  0  0  0  0
   31.3940   11.2507   -5.6879 H   0  0  0  0  0
   33.3958   15.4373   -7.5634 H   0  0  0  0  0
   29.0904   15.1687  -10.2238 H   0  0  0  0  0
   29.9849   13.0809   -8.7004 H   0  0  0  0  0
   32.8926   18.1431   -7.9411 H   0  0  0  0  0
   33.8585   17.5315   -9.3064 H   0  0  0  0  0
   32.3566   18.4377   -9.6135 H   0  0  0  0  0
   36.7735   12.2110   -3.7351 H   0  0  0  0  0
   29.5914   17.2523  -10.9139 H   0  0  0  0  0
 15  1  1  0  0  0
  1  6  4  0  0  0
  1  2  4  0  0  0
  2 13  1  0  0  0
  2  3  4  0  0  0
  3  4  4  0  0  0
  4  5  4  0  0  0
  6  5  4  0  0  0
 13 18  1  0  0  0
 13 17  2  0  0  0
 15 16  2  0  0  0
 16  7  1  0  0  0
  7 12  4  0  0  0
  7  8  4  0  0  0
  8  9  4  0  0  0
  9 14  1  0  0  0
  9 10  4  0  0  0
 10 19  1  0  0  0
 10 11  4  0  0  0
 11 12  4  0  0  0
  3 20  1  0  0  0
  4 21  1  0  0  0
  5 22  1  0  0  0
  6 23  1  0  0  0
  8 24  1  0  0  0
 11 25  1  0  0  0
 12 26  1  0  0  0
 14 27  1  0  0  0
 14 28  1  0  0  0
 14 29  1  0  0  0
 18 30  1  0  0  0
 19 31  1  0  0  0
M  END
$$$$
