3wi6_ligand
  -I-interpret- 

 35 38  0  0  0  0  0  0  0  0999 V2000
  -36.1510  -16.8720  -15.3710 N   0  0  0  0  0
  -34.8540  -17.2160  -15.9080 C   0  0  0  0  0
  -34.8750  -17.4700  -17.3970 C   0  0  0  0  0
  -33.5100  -17.9500  -17.8170 C   0  0  0  0  0
  -32.4320  -16.9660  -17.3810 C   0  0  0  0  0
  -32.5690  -16.4980  -16.0290 N   0  3  0  0  0
  -33.8850  -16.0710  -15.6390 C   0  0  0  0  0
  -36.5520  -17.3180  -14.1720 C   0  0  0  0  0
  -37.7120  -16.7020  -13.5200 C   0  0  0  0  0
  -38.5630  -15.5510  -13.9600 C   0  0  0  0  0
  -39.4830  -15.3890  -12.7440 C   0  0  0  0  0
  -39.1680  -16.4630  -11.8140 N   0  0  0  0  0
  -35.9750  -18.3600  -13.5280 N   0  0  0  0  0
  -36.4740  -18.7560  -12.3190 C   0  0  0  0  0
  -36.0430  -19.7860  -11.4400 C   0  0  0  0  0
  -36.8440  -19.8120  -10.3090 C   0  0  0  0  0
  -37.7690  -18.8290  -10.4090 N   0  0  0  0  0
  -37.4930  -18.2300  -11.6660 N   0  0  0  0  0
  -38.1410  -17.2070  -12.2370 C   0  0  0  0  0
  -36.7748  -16.2769  -15.9161 H   0  0  0  0  0
  -34.5446  -18.1384  -15.4165 H   0  0  0  0  0
  -35.1274  -16.5524  -17.9283 H   0  0  0  0  0
  -35.6252  -18.2237  -17.6362 H   0  0  0  0  0
  -33.4873  -18.0373  -18.9033 H   0  0  0  0  0
  -33.3166  -18.9140  -17.3466 H   0  0  0  0  0
  -32.5115  -16.0948  -18.0312 H   0  0  0  0  0
  -31.4772  -17.4880  -17.4441 H   0  0  0  0  0
  -31.9667  -15.6789  -15.9475 H   0  0  0  0  0
  -32.3347  -17.2880  -15.4278 H   0  0  0  0  0
  -33.8968  -15.8099  -14.5808 H   0  0  0  0  0
  -34.1780  -15.1894  -16.2091 H   0  0  0  0  0
  -38.5359  -14.9836  -14.8903 H   0  0  0  0  0
  -40.2346  -14.6124  -12.6023 H   0  0  0  0  0
  -35.2051  -20.4574  -11.6277 H   0  0  0  0  0
  -36.7453  -20.5089   -9.4767 H   0  0  0  0  0
  1  2  1  0  0  0
  1  8  1  0  0  0
  2  3  1  0  0  0
  2  7  1  0  0  0
  3  4  1  0  0  0
  4  5  1  0  0  0
  5  6  1  0  0  0
  6  7  1  0  0  0
  8  9  4  0  0  0
  8 13  4  0  0  0
  9 10  4  0  0  0
  9 19  4  0  0  0
 10 11  4  0  0  0
 11 12  4  0  0  0
 12 19  4  0  0  0
 13 14  4  0  0  0
 14 15  4  0  0  0
 14 18  4  0  0  0
 15 16  4  0  0  0
 16 17  4  0  0  0
 17 18  4  0  0  0
 18 19  4  0  0  0
  1 20  1  0  0  0
  2 21  1  0  0  0
  3 22  1  0  0  0
  3 23  1  0  0  0
  4 24  1  0  0  0
  4 25  1  0  0  0
  5 26  1  0  0  0
  5 27  1  0  0  0
  6 28  1  0  0  0
  6 29  1  0  0  0
  7 30  1  0  0  0
  7 31  1  0  0  0
 10 32  1  0  0  0
 11 33  1  0  0  0
 15 34  1  0  0  0
 16 35  1  0  0  0
M  END
$$$$
