3i4a_ligand
  -I-interpret- 

 35 34  0  0  0  0  0  0  0  0999 V2000
    2.3860  -22.0780  -14.3500 C   0  0  0  0  0
    1.5290  -21.9290  -15.5970 C   0  0  0  0  0
    1.1390  -20.4980  -15.9080 C   0  0  0  0  0
    1.4420  -19.6690  -14.7960 N   0  3  0  0  0
    2.0190  -19.8850  -16.8990 N   0  3  0  0  0
    2.0480  -20.4620  -18.2570 C   0  0  0  0  0
    2.8750  -19.5520  -19.1900 C   0  0  0  0  0
    2.8780  -20.0750  -20.6560 C   0  0  0  0  0
    3.6250  -19.1460  -21.6260 C   0  0  0  0  0
    5.1280  -19.1450  -21.3400 C   0  0  0  0  0
    5.8340  -19.9250  -22.0180 O   0  0  0  0  0
    5.5410  -18.3460  -20.4710 O   0  0  0  0  0
    3.4170  -19.5880  -23.0140 N   0  3  0  0  0
    3.3089  -21.5118  -14.4752 H   0  0  0  0  0
    1.8391  -21.6977  -13.4873 H   0  0  0  0  0
    2.6222  -23.1310  -14.1967 H   0  0  0  0  0
    0.6077  -22.4856  -15.4251 H   0  0  0  0  0
    2.1164  -22.2948  -16.4392 H   0  0  0  0  0
    0.0932  -20.5559  -16.2098 H   0  0  0  0  0
    0.8943  -19.9700  -13.9898 H   0  0  0  0  0
    2.4361  -19.7423  -14.5797 H   0  0  0  0  0
    1.2125  -18.7013  -15.0223 H   0  0  0  0  0
    2.9633  -20.0088  -16.5337 H   0  0  0  0  0
    1.6694  -18.9342  -17.0179 H   0  0  0  0  0
    1.0299  -20.5412  -18.6382 H   0  0  0  0  0
    2.5035  -21.4516  -18.2199 H   0  0  0  0  0
    3.9037  -19.5373  -18.8299 H   0  0  0  0  0
    2.4282  -18.5578  -19.1823 H   0  0  0  0  0
    1.8416  -20.1362  -20.9880 H   0  0  0  0  0
    3.3867  -21.0390  -20.6627 H   0  0  0  0  0
    3.2300  -18.1397  -21.4867 H   0  0  0  0  0
    5.2725  -20.4286  -22.6119 H   0  0  0  0  0
    3.9173  -18.9639  -23.6469 H   0  0  0  0  0
    3.7695  -20.5389  -23.1232 H   0  0  0  0  0
    2.4205  -19.5665  -23.2307 H   0  0  0  0  0
  1  2  1  0  0  0
  2  3  1  0  0  0
  3  4  1  0  0  0
  3  5  1  0  0  0
  5  6  1  0  0  0
  6  7  1  0  0  0
  7  8  1  0  0  0
  8  9  1  0  0  0
  9 10  1  0  0  0
  9 13  1  0  0  0
 10 11  1  0  0  0
 10 12  2  0  0  0
  1 14  1  0  0  0
  1 15  1  0  0  0
  1 16  1  0  0  0
  2 17  1  0  0  0
  2 18  1  0  0  0
  3 19  1  0  0  0
  4 20  1  0  0  0
  4 21  1  0  0  0
  4 22  1  0  0  0
  5 23  1  0  0  0
  5 24  1  0  0  0
  6 25  1  0  0  0
  6 26  1  0  0  0
  7 27  1  0  0  0
  7 28  1  0  0  0
  8 29  1  0  0  0
  8 30  1  0  0  0
  9 31  1  0  0  0
 11 32  1  0  0  0
 13 33  1  0  0  0
 13 34  1  0  0  0
 13 35  1  0  0  0
M  END
$$$$
