### 
### Created by X-TOOL on Mon Sep 10 21:13:29 2018
### 

@<TRIPOS>MOLECULE
5axi_ligand
   77    78     1     0     0
SMALL
GAST_HUCK


@<TRIPOS>ATOM
      1 N          22.4820    8.6750   -1.2430 N.4       1 ASP         0.2391
      2 CA         23.9410    8.4030   -1.4110 C.3       1 ASP         0.0764
      3 C          24.4760    7.5120   -0.2810 C.2       1 ASP         0.2282
      4 O          23.9700    6.4070   -0.0700 O.2       1 ASP        -0.3906
      5 CB         24.7340    9.7150   -1.5260 C.3       1 ASP         0.0607
      6 CG         23.9050   10.9430   -1.1690 C.2       1 ASP         0.0425
      7 OD1        24.5020   11.9750   -0.7940 O.co2     1 ASP        -0.5686
      8 OD2        22.6600   10.8840   -1.2720 O.co2     1 ASP        -0.5686
      9 N          25.4880    7.9800    0.4450 N.am      1 GLY        -0.2636
     10 CA         26.1250    7.1490    1.4640 C.3       1 GLY         0.1203
     11 C          26.6250    7.9050    2.6780 C.2       1 GLY         0.2010
     12 O          26.3020    9.0730    2.8830 O.2       1 GLY        -0.3947
     13 N          27.4170    7.2190    3.4920 N.am      1 PTR        -0.2609
     14 CA         27.9970    7.8130    4.6840 C.3       1 PTR         0.1468
     15 C          29.4340    8.1410    4.3870 C.2       1 PTR         0.2074
     16 O          30.0790    7.4590    3.5920 O.2       1 PTR        -0.3941
     17 CB         27.8920    6.8130    5.8330 C.3       1 PTR         0.0400
     18 CG         26.4430    6.5400    6.1840 C.ar      1 PTR        -0.0004
     19 CD1        25.6920    7.5200    6.8180 C.ar      1 PTR        -0.0239
     20 CD2        25.8520    5.3150    5.8860 C.ar      1 PTR        -0.0239
     21 CE1        24.3640    7.2790    7.1470 C.ar      1 PTR         0.0115
     22 CE2        24.5190    5.0720    6.2200 C.ar      1 PTR         0.0115
     23 CZ         23.7720    6.0600    6.8520 C.ar      1 PTR         0.1728
     24 OH         22.4580    5.8760    7.2040 O.3       1 PTR        -0.2040
     25 P          21.6230    4.5180    6.9570 P.3       1 PTR         0.1348
     26 O1P        21.5710    4.3900    5.4570 O.co2     1 PTR        -0.6653
     27 O2P        20.3090    4.8520    7.6220 O.co2     1 PTR        -0.6653
     28 O3P        22.4000    3.4150    7.6340 O.co2     1 PTR        -0.6653
     29 N          29.9450    9.1940    5.0150 N.am      1 MET        -0.2635
     30 CA         31.3350    9.5950    4.8350 C.3       1 MET         0.1319
     31 C          32.2040    9.0110    5.9440 C.2       1 MET         0.2059
     32 O          31.7410    8.8320    7.0710 O.2       1 MET        -0.3942
     33 CB         31.4540   11.1220    4.8310 C.3       1 MET        -0.0034
     34 CG         30.9470   11.7910    3.5600 C.3       1 MET        -0.0024
     35 SD         32.1060   11.6820    2.1810 S.3       1 MET        -0.1639
     36 CE         31.2700   12.6800    0.9500 C.3       1 MET        -0.0181
     37 N          33.4720    8.7050    5.6230 N.am      1 PRO        -0.2556
     38 CA         34.4180    8.1660    6.5990 C.3       1 PRO         0.0972
     39 C          34.8480    9.2100    7.6290 C.2       1 PRO         0.0603
     40 O          35.0290   10.3840    7.3020 O.co2     1 PRO        -0.5666
     41 CB         35.6110    7.7430    5.7350 C.3       1 PRO        -0.0159
     42 CG         35.5360    8.6110    4.5260 C.3       1 PRO        -0.0288
     43 CD         34.0720    8.8390    4.2830 C.3       1 PRO         0.0362
     44 OXT        35.0230    8.9040    8.8110 O.co2     1 PRO        -0.5666
     45 H1         22.1603    9.2607   -1.9977 H         1 ASP         0.2016
     46 H2         22.3266    9.1437   -0.3643 H         1 ASP         0.2016
     47 H3         21.9744    7.8042   -1.2537 H         1 ASP         0.2016
     48 H4         24.0710    7.8531   -2.3548 H         1 ASP         0.1117
     49 H5         25.0894    9.8206   -2.5616 H         1 ASP         0.0512
     50 H6         25.5968    9.6643   -0.8456 H         1 ASP         0.0512
     51 H7         25.8166    8.9119    0.2913 H         1 GLY         0.1882
     52 H8         26.9825    6.6379    1.0020 H         1 GLY         0.0763
     53 H9         25.3924    6.4021    1.8037 H         1 GLY         0.0763
     54 H10        27.6209    6.2636    3.2783 H         1 PTR         0.1886
     55 H11        27.4553    8.7331    4.9486 H         1 PTR         0.0840
     56 H12        28.4047    7.2236    6.7153 H         1 PTR         0.0584
     57 H13        28.3737    5.8702    5.5346 H         1 PTR         0.0584
     58 H14        26.1430    8.4763    7.0572 H         1 PTR         0.0703
     59 H15        26.4316    4.5443    5.3909 H         1 PTR         0.0703
     60 H16        23.7846    8.0516    7.6393 H         1 PTR         0.0736
     61 H17        24.0667    4.1148    5.9872 H         1 PTR         0.0736
     62 H18        29.3605    9.7260    5.6277 H         1 MET         0.1883
     63 H19        31.6898    9.2100    3.8676 H         1 MET         0.0800
     64 H20        32.5147   11.3845    4.9579 H         1 MET         0.0320
     65 H21        30.8751   11.5141    5.6802 H         1 MET         0.0320
     66 H22        30.7608   12.8534    3.7757 H         1 MET         0.0378
     67 H23        30.0052   11.3066    3.2629 H         1 MET         0.0378
     68 H24        31.8721   12.7076    0.0298 H         1 MET         0.0340
     69 H25        31.1398   13.7026    1.3337 H         1 MET         0.0340
     70 H26        30.2849   12.2425    0.7306 H         1 MET         0.0340
     71 H27        33.9838    7.3008    7.1213 H         1 PRO         0.0728
     72 H28        35.5296    6.6823    5.4554 H         1 PRO         0.0306
     73 H29        36.5563    7.9090    6.2725 H         1 PRO         0.0306
     74 H30        35.9946    8.1071    3.6624 H         1 PRO         0.0286
     75 H31        36.0486    9.5672    4.7074 H         1 PRO         0.0286
     76 H32        33.8942    9.8437    3.8719 H         1 PRO         0.0524
     77 H33        33.6662    8.0837    3.5939 H         1 PRO         0.0524
@<TRIPOS>BOND
     1    1    2 1  
     2    2    3 1  
     3    2    5 1  
     4    3    4 2  
     5    3    9 am 
     6    5    6 1  
     7    6    7 ar 
     8    6    8 ar 
     9    9   10 1  
    10   10   11 1  
    11   11   12 2  
    12   11   13 am 
    13   13   14 1  
    14   14   15 1  
    15   14   17 1  
    16   15   16 2  
    17   15   29 am 
    18   17   18 1  
    19   18   19 ar 
    20   18   20 ar 
    21   19   21 ar 
    22   20   22 ar 
    23   21   23 ar 
    24   22   23 ar 
    25   23   24 1  
    26   24   25 1  
    27   25   26 ar 
    28   25   27 ar 
    29   25   28 ar 
    30   29   30 1  
    31   30   31 1  
    32   30   33 1  
    33   31   32 2  
    34   31   37 am 
    35   33   34 1  
    36   34   35 1  
    37   35   36 1  
    38   37   38 1  
    39   37   43 1  
    40   38   39 1  
    41   38   41 1  
    42   39   40 ar 
    43   39   44 ar 
    44   41   42 1  
    45   42   43 1  
    46    1   45 1  
    47    1   46 1  
    48    1   47 1  
    49    2   48 1  
    50    5   49 1  
    51    5   50 1  
    52    9   51 1  
    53   10   52 1  
    54   10   53 1  
    55   13   54 1  
    56   14   55 1  
    57   17   56 1  
    58   17   57 1  
    59   19   58 1  
    60   20   59 1  
    61   21   60 1  
    62   22   61 1  
    63   29   62 1  
    64   30   63 1  
    65   33   64 1  
    66   33   65 1  
    67   34   66 1  
    68   34   67 1  
    69   36   68 1  
    70   36   69 1  
    71   36   70 1  
    72   38   71 1  
    73   41   72 1  
    74   41   73 1  
    75   42   74 1  
    76   42   75 1  
    77   43   76 1  
    78   43   77 1  
@<TRIPOS>SUBSTRUCTURE
     1 ASP         1

