5axi_ligand
  -I-interpret- 

 81 82  0  0  0  0  0  0  0  0999 V2000
   22.4820    8.6750   -1.2430 N   0  3  0  0  0
   23.9410    8.4030   -1.4110 C   0  0  0  0  0
   24.4760    7.5120   -0.2810 C   0  0  0  0  0
   23.9700    6.4070   -0.0700 O   0  0  0  0  0
   24.7340    9.7150   -1.5260 C   0  0  0  0  0
   23.9050   10.9430   -1.1690 C   0  0  0  0  0
   24.5020   11.9750   -0.7940 O   0  0  0  0  0
   22.6600   10.8840   -1.2720 O   0  0  0  0  0
   25.4880    7.9800    0.4450 N   0  0  0  0  0
   26.1250    7.1490    1.4640 C   0  0  0  0  0
   26.6250    7.9050    2.6780 C   0  0  0  0  0
   26.3020    9.0730    2.8830 O   0  0  0  0  0
   27.4170    7.2190    3.4920 N   0  0  0  0  0
   27.9970    7.8130    4.6840 C   0  0  0  0  0
   29.4340    8.1410    4.3870 C   0  0  0  0  0
   30.0790    7.4590    3.5920 O   0  0  0  0  0
   27.8920    6.8130    5.8330 C   0  0  0  0  0
   26.4430    6.5400    6.1840 C   0  0  0  0  0
   25.6920    7.5200    6.8180 C   0  0  0  0  0
   25.8520    5.3150    5.8860 C   0  0  0  0  0
   24.3640    7.2790    7.1470 C   0  0  0  0  0
   24.5190    5.0720    6.2200 C   0  0  0  0  0
   23.7720    6.0600    6.8520 C   0  0  0  0  0
   22.4580    5.8760    7.2040 O   0  0  0  0  0
   21.6230    4.5180    6.9570 P   0  0  0  0  0
   21.5710    4.3900    5.4570 O   0  0  0  0  0
   20.3090    4.8520    7.6220 O   0  0  0  0  0
   22.4000    3.4150    7.6340 O   0  0  0  0  0
   29.9450    9.1940    5.0150 N   0  0  0  0  0
   31.3350    9.5950    4.8350 C   0  0  0  0  0
   32.2040    9.0110    5.9440 C   0  0  0  0  0
   31.7410    8.8320    7.0710 O   0  0  0  0  0
   31.4540   11.1220    4.8310 C   0  0  0  0  0
   30.9470   11.7910    3.5600 C   0  0  0  0  0
   32.1060   11.6820    2.1810 S   0  0  0  0  0
   31.2700   12.6800    0.9500 C   0  0  0  0  0
   33.4720    8.7050    5.6230 N   0  0  0  0  0
   34.4180    8.1660    6.5990 C   0  0  0  0  0
   34.8480    9.2100    7.6290 C   0  0  0  0  0
   35.0290   10.3840    7.3020 O   0  0  0  0  0
   35.6110    7.7430    5.7350 C   0  0  0  0  0
   35.5360    8.6110    4.5260 C   0  0  0  0  0
   34.0720    8.8390    4.2830 C   0  0  0  0  0
   35.0230    8.9040    8.8110 O   0  0  0  0  0
   21.9788    7.7908   -1.1692 H   0  0  0  0  0
   22.3349    9.2231   -0.3954 H   0  0  0  0  0
   22.1394    9.1962   -2.0501 H   0  0  0  0  0
   24.0766    7.8546   -2.3432 H   0  0  0  0  0
   25.0549    9.8200   -2.5624 H   0  0  0  0  0
   25.5682    9.6619   -0.8265 H   0  0  0  0  0
   22.4061   10.0085   -1.5731 H   0  0  0  0  0
   25.8232    8.9305    0.2883 H   0  0  0  0  0
   26.9955    6.6876    0.9976 H   0  0  0  0  0
   25.3700    6.4466    1.8172 H   0  0  0  0  0
   27.6250    6.2445    3.2741 H   0  0  0  0  0
   27.4716    8.7241    4.9701 H   0  0  0  0  0
   28.3911    7.2309    6.7073 H   0  0  0  0  0
   28.3600    5.8775    5.5266 H   0  0  0  0  0
   26.1455    8.4816    7.0585 H   0  0  0  0  0
   26.4348    4.5401    5.3881 H   0  0  0  0  0
   23.7814    8.0559    7.6420 H   0  0  0  0  0
   24.0642    4.1095    5.9859 H   0  0  0  0  0
   20.4385    4.9130    8.5713 H   0  0  0  0  0
   22.3935    3.5568    8.5835 H   0  0  0  0  0
   29.3489    9.7366    5.6400 H   0  0  0  0  0
   31.6813    9.2114    3.8753 H   0  0  0  0  0
   32.5144   11.3598    4.9158 H   0  0  0  0  0
   30.8411   11.4921    5.6529 H   0  0  0  0  0
   30.7988   12.8479    3.7818 H   0  0  0  0  0
   30.0323   11.2787    3.2616 H   0  0  0  0  0
   30.2941   12.2455    0.7335 H   0  0  0  0  0
   31.1416   13.6930    1.3315 H   0  0  0  0  0
   31.8675   12.7065    0.0388 H   0  0  0  0  0
   33.9856    7.3534    7.1828 H   0  0  0  0  0
   35.5687    6.6849    5.4768 H   0  0  0  0  0
   36.5567    7.8654    6.2630 H   0  0  0  0  0
   36.0139    8.1400    3.6670 H   0  0  0  0  0
   36.0661    9.5514    4.6771 H   0  0  0  0  0
   33.8711    9.8108    3.8321 H   0  0  0  0  0
   33.6537    8.1318    3.5668 H   0  0  0  0  0
   34.8492    7.9670    8.9269 H   0  0  0  0  0
  1  2  1  0  0  0
  2  3  1  0  0  0
  2  5  1  0  0  0
  3  4  2  0  0  0
  3  9  1  0  0  0
  5  6  1  0  0  0
  6  7  2  0  0  0
  6  8  1  0  0  0
  9 10  1  0  0  0
 10 11  1  0  0  0
 11 12  2  0  0  0
 11 13  1  0  0  0
 13 14  1  0  0  0
 14 15  1  0  0  0
 14 17  1  0  0  0
 15 16  2  0  0  0
 15 29  1  0  0  0
 17 18  1  0  0  0
 18 19  4  0  0  0
 18 20  4  0  0  0
 19 21  4  0  0  0
 20 22  4  0  0  0
 21 23  4  0  0  0
 22 23  4  0  0  0
 23 24  1  0  0  0
 24 25  1  0  0  0
 25 26  2  0  0  0
 25 27  1  0  0  0
 25 28  1  0  0  0
 29 30  1  0  0  0
 30 31  1  0  0  0
 30 33  1  0  0  0
 31 32  2  0  0  0
 31 37  1  0  0  0
 33 34  1  0  0  0
 34 35  1  0  0  0
 35 36  1  0  0  0
 37 38  1  0  0  0
 37 43  1  0  0  0
 38 39  1  0  0  0
 38 41  1  0  0  0
 39 40  2  0  0  0
 39 44  1  0  0  0
 41 42  1  0  0  0
 42 43  1  0  0  0
  1 45  1  0  0  0
  1 46  1  0  0  0
  1 47  1  0  0  0
  2 48  1  0  0  0
  5 49  1  0  0  0
  5 50  1  0  0  0
  8 51  1  0  0  0
  9 52  1  0  0  0
 10 53  1  0  0  0
 10 54  1  0  0  0
 13 55  1  0  0  0
 14 56  1  0  0  0
 17 57  1  0  0  0
 17 58  1  0  0  0
 19 59  1  0  0  0
 20 60  1  0  0  0
 21 61  1  0  0  0
 22 62  1  0  0  0
 27 63  1  0  0  0
 28 64  1  0  0  0
 29 65  1  0  0  0
 30 66  1  0  0  0
 33 67  1  0  0  0
 33 68  1  0  0  0
 34 69  1  0  0  0
 34 70  1  0  0  0
 36 71  1  0  0  0
 36 72  1  0  0  0
 36 73  1  0  0  0
 38 74  1  0  0  0
 41 75  1  0  0  0
 41 76  1  0  0  0
 42 77  1  0  0  0
 42 78  1  0  0  0
 43 79  1  0  0  0
 43 80  1  0  0  0
 44 81  1  0  0  0
M  END
$$$$
