2qa8_ligand
  -I-interpret- 

 30 32  0  0  0  0  0  0  0  0999 V2000
   -8.5280   -3.6930   17.7920 C   0  0  0  0  0
   -8.4120   -4.3850   16.5910 C   0  0  0  0  0
   -9.3680   -4.2620   15.6460 O   0  0  0  0  0
   -7.3170   -5.2000   16.3650 C   0  0  0  0  0
   -6.3310   -5.3220   17.3440 C   0  0  0  0  0
   -5.2580   -6.1090   17.1170 O   0  0  0  0  0
   -6.4390   -4.6460   18.5570 C   0  0  0  0  0
   -5.3890   -4.7740   19.6300 C   0  0  0  0  0
   -4.3930   -5.5010   19.4830 O   0  0  0  0  0
   -5.5870   -4.0280   20.9010 C   0  0  0  0  0
   -6.7250   -3.2250   21.0020 C   0  0  0  0  0
   -7.6910   -3.1470   19.9650 O   0  0  0  0  0
   -7.5470   -3.8240   18.7750 C   0  0  0  0  0
   -4.6380   -3.9970   22.0520 C   0  0  0  0  0
   -5.1520   -3.7590   23.3200 C   0  0  0  0  0
   -4.3230   -3.6590   24.4040 C   0  0  0  0  0
   -2.9410   -3.7540   24.2590 C   0  0  0  0  0
   -2.1640   -3.6250   25.3760 O   0  0  0  0  0
   -2.4000   -3.9470   22.9830 C   0  0  0  0  0
   -3.2470   -4.0470   21.8820 C   0  0  0  0  0
   -9.3881   -3.0464   17.9656 H   0  0  0  0  0
   -9.1363   -4.8008   14.8860 H   0  0  0  0  0
   -7.2252   -5.7447   15.4253 H   0  0  0  0  0
   -4.6778   -6.0854   17.8815 H   0  0  0  0  0
   -6.8766   -2.6382   21.9080 H   0  0  0  0  0
   -6.2284   -3.6506   23.4533 H   0  0  0  0  0
   -4.7500   -3.5028   25.3946 H   0  0  0  0  0
   -1.2393   -3.7108   25.1328 H   0  0  0  0  0
   -1.3204   -4.0188   22.8513 H   0  0  0  0  0
   -2.8266   -4.1647   20.8833 H   0  0  0  0  0
  1  2  4  0  0  0
  1 13  4  0  0  0
  2  3  1  0  0  0
  2  4  4  0  0  0
  4  5  4  0  0  0
  5  6  1  0  0  0
  5  7  4  0  0  0
  7  8  1  0  0  0
  7 13  4  0  0  0
  8  9  2  0  0  0
  8 10  1  0  0  0
 10 11  2  0  0  0
 10 14  1  0  0  0
 11 12  1  0  0  0
 12 13  1  0  0  0
 14 15  4  0  0  0
 14 20  4  0  0  0
 15 16  4  0  0  0
 16 17  4  0  0  0
 17 18  1  0  0  0
 17 19  4  0  0  0
 19 20  4  0  0  0
  1 21  1  0  0  0
  3 22  1  0  0  0
  4 23  1  0  0  0
  6 24  1  0  0  0
 11 25  1  0  0  0
 15 26  1  0  0  0
 16 27  1  0  0  0
 18 28  1  0  0  0
 19 29  1  0  0  0
 20 30  1  0  0  0
M  END
$$$$
