5itd_ligand
  -I-interpret- 

 61 65  0  0  0  0  0  0  0  0999 V2000
   -0.4480  110.0230   13.9930 C   0  0  0  0  0
    3.3490  118.7760   19.4150 C   0  0  0  0  0
    4.5840  119.1360   19.9650 C   0  0  0  0  0
    3.7470  118.8720   22.1810 C   0  0  0  0  0
    2.4840  118.4860   21.6890 C   0  0  0  0  0
    2.2880  118.4610   20.2940 C   0  0  0  0  0
    1.4230  118.1400   22.6090 C   0  0  0  0  0
    5.0330  119.6160   24.1440 C   0  0  0  0  0
   -1.8580  107.9540   13.8620 C   0  0  0  0  0
   -0.7110  106.9880   14.0930 C   0  0  0  0  0
   -2.9070  110.2490   13.5960 C   0  0  0  0  0
   -1.7070  113.0590   15.6120 C   0  0  0  0  0
   -0.3780  113.7120   15.9970 C   0  0  0  0  0
    0.0260  114.9160   15.4040 C   0  0  0  0  0
    1.2330  115.5140   15.7890 C   0  0  0  0  0
    2.1030  114.8450   16.6770 C   0  0  0  0  0
    1.7240  113.6430   17.2830 C   0  0  0  0  0
    0.4790  113.0970   16.9370 C   0  0  0  0  0
    1.6190  116.8150   15.1800 C   0  0  0  0  0
    1.7170  118.1350   13.2240 C   0  0  0  0  0
   -1.7480  109.3440   13.7980 N   0  0  0  0  0
   -0.5980  110.8510   15.3020 C   0  0  0  0  0
   -1.8050  111.7170   15.2870 N   0  0  0  0  0
   -3.0930  111.0950   14.8990 C   0  0  0  0  0
   -2.6800  113.8220   15.5890 O   0  0  0  0  0
    1.3430  117.0130   13.8740 N   0  0  0  0  0
    2.3250  119.1270   13.8870 N   0  0  0  0  0
    2.6080  118.9990   15.1910 C   0  0  0  0  0
    2.2040  117.8610   15.9060 C   0  0  0  0  0
    2.4870  117.7870   17.2790 C   0  0  0  0  0
    3.1430  118.8320   17.9420 C   0  0  0  0  0
    3.5050  119.9850   17.2200 C   0  0  0  0  0
    3.2540  120.0570   15.8390 C   0  0  0  0  0
    4.7540  119.1570   21.3100 N   0  0  0  0  0
    0.5920  117.8520   23.3570 N   0  0  0  0  0
    3.9420  118.8870   23.5680 O   0  0  0  0  0
   -2.9210  107.3600   13.7230 O   0  0  0  0  0
   -0.2017  110.6615   13.1446 H   0  0  0  0  0
    0.3684  109.3048   14.0681 H   0  0  0  0  0
    5.4134  119.4008   19.3092 H   0  0  0  0  0
    1.3109  118.1968   19.8897 H   0  0  0  0  0
    5.9740  119.2265   23.7555 H   0  0  0  0  0
    4.9404  120.6708   23.8852 H   0  0  0  0  0
    5.0116  119.5033   25.2279 H   0  0  0  0  0
   -0.9036  106.4062   14.9944 H   0  0  0  0  0
   -0.6244  106.3176   13.2379 H   0  0  0  0  0
    0.2161  107.5487   14.2121 H   0  0  0  0  0
   -3.8069  109.6686   13.3923 H   0  0  0  0  0
   -2.7287  110.9046   12.7437 H   0  0  0  0  0
   -0.5981  115.3865   14.6442 H   0  0  0  0  0
    3.0828  115.2709   16.8931 H   0  0  0  0  0
    2.3756  113.1459   18.0017 H   0  0  0  0  0
    0.1621  112.1671   17.4092 H   0  0  0  0  0
    1.5236  118.2341   12.1559 H   0  0  0  0  0
    0.2775  111.4932   15.3978 H   0  0  0  0  0
   -0.6930  110.1534   16.1341 H   0  0  0  0  0
   -3.4339  110.4439   15.7039 H   0  0  0  0  0
   -3.8290  111.8780   14.7164 H   0  0  0  0  0
    2.1909  116.9002   17.8393 H   0  0  0  0  0
    3.9799  120.8219   17.7320 H   0  0  0  0  0
    3.5624  120.9363   15.2735 H   0  0  0  0  0
  1 21  1  0  0  0
 22  1  1  0  0  0
  2  3  4  0  0  0
  2  6  4  0  0  0
 31  2  1  0  0  0
  3 34  4  0  0  0
  5  4  4  0  0  0
 34  4  4  0  0  0
  4 36  1  0  0  0
  6  5  4  0  0  0
  5  7  1  0  0  0
  7 35  3  0  0  0
 36  8  1  0  0  0
  9 10  1  0  0  0
 21  9  1  0  0  0
  9 37  2  0  0  0
 11 21  1  0  0  0
 24 11  1  0  0  0
 13 12  1  0  0  0
 12 23  1  0  0  0
 12 25  2  0  0  0
 14 13  4  0  0  0
 13 18  4  0  0  0
 15 14  4  0  0  0
 15 16  4  0  0  0
 19 15  1  0  0  0
 16 17  4  0  0  0
 17 18  4  0  0  0
 19 26  4  0  0  0
 29 19  4  0  0  0
 26 20  4  0  0  0
 27 20  4  0  0  0
 23 22  1  0  0  0
 23 24  1  0  0  0
 28 27  4  0  0  0
 29 28  4  0  0  0
 28 33  4  0  0  0
 30 29  4  0  0  0
 30 31  4  0  0  0
 31 32  4  0  0  0
 32 33  4  0  0  0
  1 38  1  0  0  0
  1 39  1  0  0  0
  3 40  1  0  0  0
  6 41  1  0  0  0
  8 42  1  0  0  0
  8 43  1  0  0  0
  8 44  1  0  0  0
 10 45  1  0  0  0
 10 46  1  0  0  0
 10 47  1  0  0  0
 11 48  1  0  0  0
 11 49  1  0  0  0
 14 50  1  0  0  0
 16 51  1  0  0  0
 17 52  1  0  0  0
 18 53  1  0  0  0
 20 54  1  0  0  0
 22 55  1  0  0  0
 22 56  1  0  0  0
 24 57  1  0  0  0
 24 58  1  0  0  0
 30 59  1  0  0  0
 32 60  1  0  0  0
 33 61  1  0  0  0
M  END
$$$$
