4u0w_ligand
  -I-interpret- 

 35 35  0  0  0  0  0  0  0  0999 V2000
  -41.9490   -8.6460   25.3990 C   0  0  0  0  0
  -41.3170   -7.8670   24.2540 C   0  0  0  0  0
  -42.2140   -7.7470   23.0660 C   0  0  0  0  0
  -42.7450   -9.0840   22.6820 C   0  0  0  0  0
  -43.5680   -9.5750   23.8490 C   0  0  0  0  0
  -44.3340  -10.8230   23.5280 C   0  0  0  0  0
  -40.1800   -5.5560   24.1310 C   0  0  0  0  0
  -39.8460   -4.2870   24.9010 C   0  0  0  0  0
  -40.9200   -6.5780   24.8130 N   0  0  0  0  0
  -42.8960   -7.8660   26.0250 O   0  0  0  0  0
  -41.5040   -7.2390   21.9180 O   0  0  0  0  0
  -43.5550   -8.9930   21.5040 O   0  0  0  0  0
  -42.6570   -9.8670   24.9460 O   0  0  0  0  0
  -45.0670  -11.1200   24.7180 O   0  0  0  0  0
  -39.8200   -5.6790   22.9770 O   0  0  0  0  0
  -46.1970  -12.2460   24.7060 P   0  0  0  0  0
  -47.2570  -11.9520   23.6640 O   0  0  0  0  0
  -45.5090  -13.5580   24.3930 O   0  0  0  0  0
  -46.8160  -12.2400   26.0880 O   0  0  0  0  0
  -41.1278   -8.9245   26.0595 H   0  0  0  0  0
  -40.4489   -8.3939   23.8578 H   0  0  0  0  0
  -43.0162   -7.0649   23.3475 H   0  0  0  0  0
  -41.9301   -9.7719   22.4567 H   0  0  0  0  0
  -44.2905   -8.7999   24.1044 H   0  0  0  0  0
  -43.6732  -11.6421   23.2443 H   0  0  0  0  0
  -44.9926  -10.6847   22.6705 H   0  0  0  0  0
  -38.7637   -4.1661   24.9476 H   0  0  0  0  0
  -40.2872   -3.4290   24.3938 H   0  0  0  0  0
  -40.2486   -4.3600   25.9113 H   0  0  0  0  0
  -41.1940   -6.3868   25.7767 H   0  0  0  0  0
  -42.4857   -7.0570   26.3393 H   0  0  0  0  0
  -41.1433   -6.3734   22.1235 H   0  0  0  0  0
  -43.0188   -8.6800   20.7717 H   0  0  0  0  0
  -47.6863  -11.1189   23.8721 H   0  0  0  0  0
  -47.2397  -11.3928   26.2440 H   0  0  0  0  0
  2  1  1  0  0  0
  1 10  1  0  0  0
  1 13  1  0  0  0
  2  3  1  0  0  0
  9  2  1  0  0  0
  3  4  1  0  0  0
  3 11  1  0  0  0
  4  5  1  0  0  0
  4 12  1  0  0  0
  5  6  1  0  0  0
 13  5  1  0  0  0
  6 14  1  0  0  0
  7  8  1  0  0  0
  7  9  1  0  0  0
  7 15  2  0  0  0
 14 16  1  0  0  0
 16 17  1  0  0  0
 16 18  2  0  0  0
 16 19  1  0  0  0
  1 20  1  0  0  0
  2 21  1  0  0  0
  3 22  1  0  0  0
  4 23  1  0  0  0
  5 24  1  0  0  0
  6 25  1  0  0  0
  6 26  1  0  0  0
  8 27  1  0  0  0
  8 28  1  0  0  0
  8 29  1  0  0  0
  9 30  1  0  0  0
 10 31  1  0  0  0
 11 32  1  0  0  0
 12 33  1  0  0  0
 17 34  1  0  0  0
 19 35  1  0  0  0
M  END
$$$$
