2xtk_ligand
  -I-interpret- 

 19 19  0  0  0  0  0  0  0  0999 V2000
   14.5950   35.7520   73.2710 C   0  0  0  0  0
   15.0390   37.5800   74.7130 C   0  0  0  0  0
   15.8080   39.7310   74.5300 C   0  0  0  0  0
   16.2160   41.0040   75.2620 C   0  0  0  0  0
   15.0450   33.3010   72.3630 N   0  0  0  0  0
   14.4910   36.5190   75.3190 N   0  0  0  0  0
   14.2490   35.5580   74.5570 N   0  0  0  0  0
   15.3880   38.7380   75.3200 N   0  0  0  0  0
   14.9650   35.1210   70.6900 O   0  0  0  0  0
   12.8640   34.3290   71.8050 O   0  0  0  0  0
   15.8510   39.6270   73.3100 O   0  0  0  0  0
   14.3670   34.5830   71.9940 S   0  0  0  0  0
   15.2140   37.2220   73.1180 S   0  0  0  0  0
   17.2592   41.2301   75.0412 H   0  0  0  0  0
   15.5860   41.8297   74.9311 H   0  0  0  0  0
   16.0936   40.8595   76.3354 H   0  0  0  0  0
   15.7836   32.9251   71.7683 H   0  0  0  0  0
   14.7686   32.8030   73.2092 H   0  0  0  0  0
   15.3331   38.8479   76.3326 H   0  0  0  0  0
  1  7  4  0  0  0
  1 12  1  0  0  0
 13  1  4  0  0  0
  2  6  4  0  0  0
  8  2  1  0  0  0
  2 13  4  0  0  0
  3  4  1  0  0  0
  3  8  1  0  0  0
  3 11  2  0  0  0
 12  5  1  0  0  0
  6  7  4  0  0  0
 12  9  2  0  0  0
 12 10  2  0  0  0
  4 14  1  0  0  0
  4 15  1  0  0  0
  4 16  1  0  0  0
  5 17  1  0  0  0
  5 18  1  0  0  0
  8 19  1  0  0  0
M  END
$$$$
