5aae_ligand
  -I-interpret- 

 45 49  0  0  0  0  0  0  0  0999 V2000
    7.9840  -22.0850   -5.1100 C   0  0  0  0  0
    7.6280  -23.5220   -4.7400 C   0  0  0  0  0
    8.4210  -24.6520   -4.9400 C   0  0  0  0  0
    7.7090  -25.7510   -4.4560 C   0  0  0  0  0
    8.1830  -27.2050   -4.4670 C   0  0  0  0  0
    7.0920  -28.0570   -4.8800 N   0  0  0  0  0
    6.9650  -28.6420   -6.0940 C   0  0  0  0  0
    5.7720  -29.3820   -6.1130 C   0  0  0  0  0
    5.2190  -30.1600   -7.1720 C   0  0  0  0  0
    5.4620  -29.8900   -8.5380 C   0  0  0  0  0
    6.4900  -28.5720   -9.0730 Cl  0  0  0  0  0
    4.8680  -30.7040   -9.5290 C   0  0  0  0  0
    4.0600  -31.7440   -9.1960 N   0  0  0  0  0
    3.7960  -32.0320   -7.8600 C   0  0  0  0  0
    3.0190  -33.0190   -7.2480 N   0  0  0  0  0
    3.0940  -32.8650   -5.9070 C   0  0  0  0  0
    2.4310  -33.6900   -4.9730 C   0  0  0  0  0
    1.6360  -34.7930   -5.3120 C   0  0  0  0  0
    1.1700  -35.3360   -4.1670 N   0  0  0  0  0
    0.3110  -36.4930   -4.0920 C   0  0  0  0  0
    1.6340  -34.6220   -3.1150 N   0  0  0  0  0
    2.4110  -33.6060   -3.5750 C   0  0  0  0  0
    3.1140  -32.5840   -2.6990 C   0  0  0  0  0
    3.8990  -31.8060   -5.6400 N   0  0  0  0  0
    4.3450  -31.2760   -6.8530 C   0  0  0  0  0
    5.2140  -29.2090   -4.8480 C   0  0  0  0  0
    6.0280  -28.4010   -4.1210 N   0  0  0  0  0
    6.5330  -25.3060   -3.9790 N   0  0  0  0  0
    6.4750  -23.9310   -4.1500 O   0  0  0  0  0
    8.8884  -21.7879   -4.5791 H   0  0  0  0  0
    8.1538  -22.0193   -6.1847 H   0  0  0  0  0
    7.1632  -21.4250   -4.8295 H   0  0  0  0  0
    9.4132  -24.6730   -5.3908 H   0  0  0  0  0
    8.5118  -27.4902   -3.4677 H   0  0  0  0  0
    9.0152  -27.3132   -5.1625 H   0  0  0  0  0
    7.6713  -28.5533   -6.9194 H   0  0  0  0  0
    5.0620  -30.4932  -10.5807 H   0  0  0  0  0
    1.4302  -35.1495   -6.3213 H   0  0  0  0  0
   -0.6170  -36.2902   -4.6265 H   0  0  0  0  0
    0.8138  -37.3472   -4.5455 H   0  0  0  0  0
    0.0897  -36.7125   -3.0475 H   0  0  0  0  0
    4.1894  -32.6414   -2.8674 H   0  0  0  0  0
    2.7583  -31.5851   -2.9513 H   0  0  0  0  0
    2.8972  -32.7945   -1.6517 H   0  0  0  0  0
    4.2795  -29.6491   -4.4999 H   0  0  0  0  0
  1  2  1  0  0  0
  2  3  4  0  0  0
  2 29  4  0  0  0
  3  4  4  0  0  0
  4  5  1  0  0  0
  4 28  4  0  0  0
  5  6  1  0  0  0
  6  7  4  0  0  0
  6 27  4  0  0  0
  7  8  4  0  0  0
  8  9  1  0  0  0
  8 26  4  0  0  0
  9 10  4  0  0  0
  9 25  4  0  0  0
 10 11  1  0  0  0
 10 12  4  0  0  0
 12 13  4  0  0  0
 13 14  4  0  0  0
 14 15  4  0  0  0
 14 25  4  0  0  0
 15 16  4  0  0  0
 16 17  1  0  0  0
 16 24  4  0  0  0
 17 18  4  0  0  0
 17 22  4  0  0  0
 18 19  4  0  0  0
 19 20  1  0  0  0
 19 21  4  0  0  0
 21 22  4  0  0  0
 22 23  1  0  0  0
 24 25  4  0  0  0
 26 27  4  0  0  0
 28 29  4  0  0  0
  1 30  1  0  0  0
  1 31  1  0  0  0
  1 32  1  0  0  0
  3 33  1  0  0  0
  5 34  1  0  0  0
  5 35  1  0  0  0
  7 36  1  0  0  0
 12 37  1  0  0  0
 18 38  1  0  0  0
 20 39  1  0  0  0
 20 40  1  0  0  0
 20 41  1  0  0  0
 23 42  1  0  0  0
 23 43  1  0  0  0
 23 44  1  0  0  0
 26 45  1  0  0  0
M  END
$$$$
